file 136531 1690775319                                          
version 3
run General-0-20230730-22:32:12-18568
attr configname General
attr datetime 20230730-22:32:12
attr datetimef 20230730-223212
attr experiment General
attr inifile testfattree.ini
attr iterationvars "$k=1e-5, $p=8e-5, $m=0.25"
attr iterationvarsd k=1e-5/p=8e-5/m=0.25
attr iterationvarsf k=1e-5,p=8e-5,m=0.25-
attr measurement "$k=1e-5, $p=8e-5, $m=0.25"
attr network testfattree
attr processid 18568
attr repetition 0
attr replication #0
attr resultdir results
attr runnumber 0
attr seedset 0
itervar k 1e-5
itervar m 0.25
itervar p 8e-5
config image-path ../../../../images
config network testfattree
config sim-time-limit 110s
config **.*.vector-recording true
config **.arp.typename GlobalArp
config **.arp.retryTimeout 1s
config **.arp.retryCount 3
config **.arp.cacheTimeout 100s
config **.configurator.ecmp true
config **.*.ipv4.routingTable.flowlevel true
config **.Core*.ipv4.ip.useEcmp true
config **.Agre*.ipv4.ip.useEcmp true
config **.Edge*.ipv4.ip.useEcmp true
config **.*.mac.maxInterval 100us
config **.*.mac.batchSize 50
config **.*.Hiqueue.*.sharedBuffer 9MB
config **.*.Hiqueue.*.alpha 1
config **.*.Hiqueue.*.useEcn true
config **.*.Hiqueue.*.Kmax 200000B
config **.*.Hiqueue.*.Kmin 5000B
config **.*.Hiqueue.*.Pmax 0
config **.*.Hiqueue.*.usePfc true
config **.*.Hiqueue.*.XOFF 300000B
config **.*.Hiqueue.*.XON 297000B
config **.*.Hiqueue.*.headroom 21520b
config **.Core*.eth[*].*.creditQueue.limrate 2Gbps
config **.Agre*.eth[*].*.creditQueue.limrate 2Gbps
config **.Edge*.eth[12].*.creditQueue.limrate 2Gbps
config **.Edge*.eth[0..11].*.creditQueue.limrate 0.5Gbps
config **.Host*.numApps 1
config **.Host3.app[0].typename HiUdpApp
config **.Host3.app[0].trafficMode "\"WebSearch\""
config **.Host3.app[0].Enablepoisson true
config **.Host3.app[0].workLoad 1
config **.Host3.app[0].linkSpeed 10Gbps
config **.Host3.app[0].AppPriority 1
config **.Host3.app[0].packetName default
config **.Host3.app[0].connectAddresses "\"Host15\""
config **.Host4.app[0].typename HiUdpApp
config **.Host4.app[0].trafficMode "\"WebSearch\""
config **.Host4.app[0].Enablepoisson true
config **.Host4.app[0].workLoad 1
config **.Host4.app[0].linkSpeed 10Gbps
config **.Host4.app[0].AppPriority 1
config **.Host4.app[0].packetName default
config **.Host4.app[0].connectAddresses "\"Host15\""
config **.Host15.app[0].typename HiUdpApp
config **.Host1.app[0].connectAddresses "\"Host2\""
config **.Host*.app[0].typename TcpApp
config **.Host*.app[0].connectAddresses "\"Host13\""
config **.Host1.app[0].localAddress "\"Host1\""
config **.Host2.app[0].localAddress "\"Host2\""
config **.Host3.app[0].localAddress "\"Host3\""
config **.Host4.app[0].localAddress "\"Host4\""
config **.Host5.app[0].localAddress "\"Host5\""
config **.Host6.app[0].localAddress "\"Host6\""
config **.Host7.app[0].localAddress "\"Host7\""
config **.Host8.app[0].localAddress "\"Host8\""
config **.Host9.app[0].localAddress "\"Host9\""
config **.Host10.app[0].localAddress "\"Host10\""
config **.Host11.app[0].localAddress "\"Host11\""
config **.Host12.app[0].localAddress "\"Host12\""
config **.Host13.app[0].localAddress "\"Host13\""
config **.Host14.app[0].localAddress "\"Host14\""
config **.Host15.app[0].localAddress "\"Host15\""
config **.Host16.app[0].localAddress "\"Host16\""
config **.Host3.app[0].startTime 0s
config **.Host3.app[0].stopTime 1s
config **.Host4.app[0].startTime -1s
config **.Host4.app[0].stopTime 1s
config **.Host1.app[0].tOpen -1s
config **.Host1.app[0].tSend 0s
config **.Host1.app[0].tClose 10s
config **.Host3.UdpCC.typename CoRe
config **.Host15.UdpCC.typename CoRe
config **.Host3.UdpCC.linkspeed 10Gbps
config **.Host*.UdpCC.activate true
config **.Host*.UdpCC.baseRTT 100us
config **.Host3.UdpCC.expectedFlows 1
config **.Core*.eth[*].mac.HPCC true
config **.Agre*.eth[*].mac.HPCC true
config **.Edge*.eth[*].mac.HPCC true
config **.Host*.UdpCC.PARA_K 1e-5
config **.Host*.UdpCC.PARA_P 8e-5
config **.Host*.UdpCC.m 0.25
config **.Core*.eth[*].mac.CoRe true
config **.Agre*.eth[*].mac.CoRe true
config **.Edge*.eth[*].mac.CoRe true
config **.Core*.eth[*].*.*.S_drop 8kB
config **.Agre*.eth[*].*.*.S_drop 8kB
config **.Edge*.eth[*].*.*.S_drop 8kB
config **.Host3.UdpCC.min_cnp_interval 55us
config **.Host3.UdpCC.AlphaTimer_th 25us
config **.Host3.UdpCC.RateTimer_th 55us
config **.Host3.UdpCC.ByteCounter_th 10MiB
config **.Host3.UdpCC.gamma 1/256
config **.Host3.UdpCC.Rai 40Mbps
config **.Host3.UdpCC.Rhai 100Mbps
config **.Host2.UdpCC.typename DCQCN
config **.Host2.UdpCC.linkspeed 1Gbps
config **.Host2.UdpCC.min_cnp_interval 55us
config **.Host2.UdpCC.AlphaTimer_th 25us
config **.Host2.UdpCC.RateTimer_th 55us
config **.Host2.UdpCC.ByteCounter_th 10MiB
config **.Host2.UdpCC.gamma 1/256
config **.Host2.UdpCC.Rai 40Mbps
config **.Host2.UdpCC.Rhai 100Mbps
config **.Host2.app[0].typename TcpApp
config **.Host2.app[0].startTime -1s
config **.Host2.app[0].stopTime 1s
config **.Host14.UdpCC.typename XPASS
config **.Host14.UdpCC.linkspeed 1Gbps
config **.Host14.UdpCC.initialrate 1/16
config **.Host14.UdpCC.wmax 0.03
config **.Host14.UdpCC.wmin 0.01
config **.Host14.UdpCC.targetratio 0.1
config **.tcp.tcpAlgorithmClass "\"DcTcp\""
config **.tcp.mss 1460
config **.tcp.ecnWillingness true
config **.tcp.nagleEnabled false
config **.tcp.limitedTransmitEnabled false
config **.tcp.sackSupport false
config **.tcp.timestampSupport false
config **.tcp.delayedAcksEnabled true
config **.tcp.recordStat true
config **.tcp.advertisedWindow 6250
config **.tcp.dctcpGamma 0.0625

vector 0 testfattree.Host1.udp passedUpPk:vector(count) ETV
attr interpolationmode none
attr recordingmode vector(count)
attr source packetSentToUpper
attr title "packets passed up, count"
vector 1 testfattree.Host1.udp droppedPkWrongPort:vector(count) ETV
attr interpolationmode none
attr recordingmode vector(count)
attr source packetDropReasonIsNoPortFound(packetDropped)
attr title "packets dropped (wrong port), count"
vector 2 testfattree.Host1.udp droppedPkBadChecksum:vector(count) ETV
attr interpolationmode none
attr recordingmode vector(count)
attr source packetDropReasonIsIncorrectlyReceived(packetDropped)
attr title "packets dropped (checksum error), count"
vector 3 testfattree.Host2.udp passedUpPk:vector(count) ETV
attr interpolationmode none
attr recordingmode vector(count)
attr source packetSentToUpper
attr title "packets passed up, count"
vector 4 testfattree.Host2.udp droppedPkWrongPort:vector(count) ETV
attr interpolationmode none
attr recordingmode vector(count)
attr source packetDropReasonIsNoPortFound(packetDropped)
attr title "packets dropped (wrong port), count"
vector 5 testfattree.Host2.udp droppedPkBadChecksum:vector(count) ETV
attr interpolationmode none
attr recordingmode vector(count)
attr source packetDropReasonIsIncorrectlyReceived(packetDropped)
attr title "packets dropped (checksum error), count"
vector 6 testfattree.Host3.udp passedUpPk:vector(count) ETV
attr interpolationmode none
attr recordingmode vector(count)
attr source packetSentToUpper
attr title "packets passed up, count"
vector 7 testfattree.Host3.udp droppedPkWrongPort:vector(count) ETV
attr interpolationmode none
attr recordingmode vector(count)
attr source packetDropReasonIsNoPortFound(packetDropped)
attr title "packets dropped (wrong port), count"
vector 8 testfattree.Host3.udp droppedPkBadChecksum:vector(count) ETV
attr interpolationmode none
attr recordingmode vector(count)
attr source packetDropReasonIsIncorrectlyReceived(packetDropped)
attr title "packets dropped (checksum error), count"
vector 9 testfattree.Host4.udp passedUpPk:vector(count) ETV
attr interpolationmode none
attr recordingmode vector(count)
attr source packetSentToUpper
attr title "packets passed up, count"
vector 10 testfattree.Host4.udp droppedPkWrongPort:vector(count) ETV
attr interpolationmode none
attr recordingmode vector(count)
attr source packetDropReasonIsNoPortFound(packetDropped)
attr title "packets dropped (wrong port), count"
vector 11 testfattree.Host4.udp droppedPkBadChecksum:vector(count) ETV
attr interpolationmode none
attr recordingmode vector(count)
attr source packetDropReasonIsIncorrectlyReceived(packetDropped)
attr title "packets dropped (checksum error), count"
vector 12 testfattree.Host5.udp passedUpPk:vector(count) ETV
attr interpolationmode none
attr recordingmode vector(count)
attr source packetSentToUpper
attr title "packets passed up, count"
vector 13 testfattree.Host5.udp droppedPkWrongPort:vector(count) ETV
attr interpolationmode none
attr recordingmode vector(count)
attr source packetDropReasonIsNoPortFound(packetDropped)
attr title "packets dropped (wrong port), count"
vector 14 testfattree.Host5.udp droppedPkBadChecksum:vector(count) ETV
attr interpolationmode none
attr recordingmode vector(count)
attr source packetDropReasonIsIncorrectlyReceived(packetDropped)
attr title "packets dropped (checksum error), count"
vector 15 testfattree.Host6.udp passedUpPk:vector(count) ETV
attr interpolationmode none
attr recordingmode vector(count)
attr source packetSentToUpper
attr title "packets passed up, count"
vector 16 testfattree.Host6.udp droppedPkWrongPort:vector(count) ETV
attr interpolationmode none
attr recordingmode vector(count)
attr source packetDropReasonIsNoPortFound(packetDropped)
attr title "packets dropped (wrong port), count"
vector 17 testfattree.Host6.udp droppedPkBadChecksum:vector(count) ETV
attr interpolationmode none
attr recordingmode vector(count)
attr source packetDropReasonIsIncorrectlyReceived(packetDropped)
attr title "packets dropped (checksum error), count"
vector 18 testfattree.Host7.udp passedUpPk:vector(count) ETV
attr interpolationmode none
attr recordingmode vector(count)
attr source packetSentToUpper
attr title "packets passed up, count"
vector 19 testfattree.Host7.udp droppedPkWrongPort:vector(count) ETV
attr interpolationmode none
attr recordingmode vector(count)
attr source packetDropReasonIsNoPortFound(packetDropped)
attr title "packets dropped (wrong port), count"
vector 20 testfattree.Host7.udp droppedPkBadChecksum:vector(count) ETV
attr interpolationmode none
attr recordingmode vector(count)
attr source packetDropReasonIsIncorrectlyReceived(packetDropped)
attr title "packets dropped (checksum error), count"
vector 21 testfattree.Host8.udp passedUpPk:vector(count) ETV
attr interpolationmode none
attr recordingmode vector(count)
attr source packetSentToUpper
attr title "packets passed up, count"
vector 22 testfattree.Host8.udp droppedPkWrongPort:vector(count) ETV
attr interpolationmode none
attr recordingmode vector(count)
attr source packetDropReasonIsNoPortFound(packetDropped)
attr title "packets dropped (wrong port), count"
vector 23 testfattree.Host8.udp droppedPkBadChecksum:vector(count) ETV
attr interpolationmode none
attr recordingmode vector(count)
attr source packetDropReasonIsIncorrectlyReceived(packetDropped)
attr title "packets dropped (checksum error), count"
vector 24 testfattree.Host9.udp passedUpPk:vector(count) ETV
attr interpolationmode none
attr recordingmode vector(count)
attr source packetSentToUpper
attr title "packets passed up, count"
vector 25 testfattree.Host9.udp droppedPkWrongPort:vector(count) ETV
attr interpolationmode none
attr recordingmode vector(count)
attr source packetDropReasonIsNoPortFound(packetDropped)
attr title "packets dropped (wrong port), count"
vector 26 testfattree.Host9.udp droppedPkBadChecksum:vector(count) ETV
attr interpolationmode none
attr recordingmode vector(count)
attr source packetDropReasonIsIncorrectlyReceived(packetDropped)
attr title "packets dropped (checksum error), count"
vector 27 testfattree.Host10.udp passedUpPk:vector(count) ETV
attr interpolationmode none
attr recordingmode vector(count)
attr source packetSentToUpper
attr title "packets passed up, count"
vector 28 testfattree.Host10.udp droppedPkWrongPort:vector(count) ETV
attr interpolationmode none
attr recordingmode vector(count)
attr source packetDropReasonIsNoPortFound(packetDropped)
attr title "packets dropped (wrong port), count"
vector 29 testfattree.Host10.udp droppedPkBadChecksum:vector(count) ETV
attr interpolationmode none
attr recordingmode vector(count)
attr source packetDropReasonIsIncorrectlyReceived(packetDropped)
attr title "packets dropped (checksum error), count"
vector 30 testfattree.Host11.udp passedUpPk:vector(count) ETV
attr interpolationmode none
attr recordingmode vector(count)
attr source packetSentToUpper
attr title "packets passed up, count"
vector 31 testfattree.Host11.udp droppedPkWrongPort:vector(count) ETV
attr interpolationmode none
attr recordingmode vector(count)
attr source packetDropReasonIsNoPortFound(packetDropped)
attr title "packets dropped (wrong port), count"
vector 32 testfattree.Host11.udp droppedPkBadChecksum:vector(count) ETV
attr interpolationmode none
attr recordingmode vector(count)
attr source packetDropReasonIsIncorrectlyReceived(packetDropped)
attr title "packets dropped (checksum error), count"
vector 33 testfattree.Host12.udp passedUpPk:vector(count) ETV
attr interpolationmode none
attr recordingmode vector(count)
attr source packetSentToUpper
attr title "packets passed up, count"
vector 34 testfattree.Host12.udp droppedPkWrongPort:vector(count) ETV
attr interpolationmode none
attr recordingmode vector(count)
attr source packetDropReasonIsNoPortFound(packetDropped)
attr title "packets dropped (wrong port), count"
vector 35 testfattree.Host12.udp droppedPkBadChecksum:vector(count) ETV
attr interpolationmode none
attr recordingmode vector(count)
attr source packetDropReasonIsIncorrectlyReceived(packetDropped)
attr title "packets dropped (checksum error), count"
vector 36 testfattree.Host13.udp passedUpPk:vector(count) ETV
attr interpolationmode none
attr recordingmode vector(count)
attr source packetSentToUpper
attr title "packets passed up, count"
vector 37 testfattree.Host13.udp droppedPkWrongPort:vector(count) ETV
attr interpolationmode none
attr recordingmode vector(count)
attr source packetDropReasonIsNoPortFound(packetDropped)
attr title "packets dropped (wrong port), count"
vector 38 testfattree.Host13.udp droppedPkBadChecksum:vector(count) ETV
attr interpolationmode none
attr recordingmode vector(count)
attr source packetDropReasonIsIncorrectlyReceived(packetDropped)
attr title "packets dropped (checksum error), count"
vector 39 testfattree.Host14.udp passedUpPk:vector(count) ETV
attr interpolationmode none
attr recordingmode vector(count)
attr source packetSentToUpper
attr title "packets passed up, count"
vector 40 testfattree.Host14.udp droppedPkWrongPort:vector(count) ETV
attr interpolationmode none
attr recordingmode vector(count)
attr source packetDropReasonIsNoPortFound(packetDropped)
attr title "packets dropped (wrong port), count"
vector 41 testfattree.Host14.udp droppedPkBadChecksum:vector(count) ETV
attr interpolationmode none
attr recordingmode vector(count)
attr source packetDropReasonIsIncorrectlyReceived(packetDropped)
attr title "packets dropped (checksum error), count"
vector 42 testfattree.Host15.udp passedUpPk:vector(count) ETV
attr interpolationmode none
attr recordingmode vector(count)
attr source packetSentToUpper
attr title "packets passed up, count"
vector 43 testfattree.Host15.udp droppedPkWrongPort:vector(count) ETV
attr interpolationmode none
attr recordingmode vector(count)
attr source packetDropReasonIsNoPortFound(packetDropped)
attr title "packets dropped (wrong port), count"
vector 44 testfattree.Host15.udp droppedPkBadChecksum:vector(count) ETV
attr interpolationmode none
attr recordingmode vector(count)
attr source packetDropReasonIsIncorrectlyReceived(packetDropped)
attr title "packets dropped (checksum error), count"
vector 45 testfattree.Host16.udp passedUpPk:vector(count) ETV
attr interpolationmode none
attr recordingmode vector(count)
attr source packetSentToUpper
attr title "packets passed up, count"
vector 46 testfattree.Host16.udp droppedPkWrongPort:vector(count) ETV
attr interpolationmode none
attr recordingmode vector(count)
attr source packetDropReasonIsNoPortFound(packetDropped)
attr title "packets dropped (wrong port), count"
vector 47 testfattree.Host16.udp droppedPkBadChecksum:vector(count) ETV
attr interpolationmode none
attr recordingmode vector(count)
attr source packetDropReasonIsIncorrectlyReceived(packetDropped)
attr title "packets dropped (checksum error), count"
vector 48 testfattree.Host3.app[0] packetSent:vector(packetBytes) ETV
attr interpolationmode none
attr recordingmode vector(packetBytes)
attr source packetSent
attr title "packets sent, packetBytes"
vector 49 testfattree.Host3.udp packetSent:vector(packetBytes) ETV
attr interpolationmode none
attr recordingmode vector(packetBytes)
attr source packetSent
attr title "packets sent, packetBytes"
vector 50 testfattree.Host3.ethernet encapPk:vector(packetBytes) ETV
attr interpolationmode none
attr recordingmode vector(packetBytes)
attr source encapPk
attr title "packets encapsulated, packetBytes"
vector 51 testfattree.Host3.eth[0].Hostqueue incomingPacketLengths:vector ETV
attr interpolationmode none
attr recordingmode vector
attr source packetLength(packetPushStarted)
attr title "incoming packet lengths"
attr unit b
vector 52 testfattree.Host3.eth[0].Hostqueue queueingTime:vector ETV
attr interpolationmode none
attr recordingmode vector
attr source queueingTime(packetPulled)
attr title "queueing times"
attr unit s
vector 53 testfattree.Host3.eth[0].Hostqueue outgoingPacketLengths:vector ETV
attr interpolationmode none
attr recordingmode vector
attr source packetLength(packetPulled)
attr title "outgoing packet lengths"
attr unit b
vector 54 testfattree.Host3.eth[0].mac packetReceivedFromUpper:vector(packetBytes) ETV
attr interpolationmode none
attr recordingmode vector(packetBytes)
attr source packetReceivedFromUpper
attr title "packet bytes from higher layer, packetBytes"
vector 55 testfattree.Host3.eth[0].Hostqueue queueLength:vector ETV
attr autoWarmupFilter false
attr interpolationmode sample-hold
attr recordingmode vector
attr source "warmup(atomic(constant0(packetPushEnded) + count(packetPushStarted) - count(packetPulled) - count(packetRemoved) - count(packetDropped)))"
attr title "queue length"
attr unit pk
vector 56 testfattree.Host3.eth[0].Hostqueue queueBitLength:vector ETV
attr autoWarmupFilter false
attr interpolationmode sample-hold
attr recordingmode vector
attr source "warmup(atomic(constant0(packetPushEnded) + sum(packetLength(packetPushStarted)) - sum(packetLength(packetPulled)) - sum(packetLength(packetRemoved)) - sum(packetLength(packetDropped))))"
attr title "queue bit length"
attr unit b
vector 57 testfattree.Host3.eth[0].mac txPk:vector(packetBytes) ETV
attr interpolationmode none
attr recordingmode vector(packetBytes)
attr source packetSentToLower
attr title "packets transmitted, packetBytes"
vector 58 testfattree.Edge2.eth[0].mac rxPkOk:vector(packetBytes) ETV
attr interpolationmode none
attr recordingmode vector(packetBytes)
attr source rxPkOk
attr title "packets received OK, packetBytes"
vector 59 testfattree.Edge2.eth[0].mac passedUpPk:vector(packetBytes) ETV
attr interpolationmode none
attr recordingmode vector(packetBytes)
attr source packetSentToUpper
attr title "packets passed to higher layer, packetBytes"
vector 60 testfattree.Edge2.ethernet decapPk:vector(packetBytes) ETV
attr interpolationmode none
attr recordingmode vector(packetBytes)
attr source decapPk
attr title "packets decapsulated, packetBytes"
vector 61 testfattree.Edge2.ethernet encapPk:vector(packetBytes) ETV
attr interpolationmode none
attr recordingmode vector(packetBytes)
attr source encapPk
attr title "packets encapsulated, packetBytes"
vector 62 testfattree.Edge2.eth[3].Hiqueue.beQueue "queuelength (bit)" ETV
vector 63 testfattree.Edge2.eth[3].Hiqueue.beQueue incomingPacketLengths:vector ETV
attr interpolationmode none
attr recordingmode vector
attr source packetLength(packetPushStarted)
attr title "incoming packet lengths"
attr unit b
vector 64 testfattree.Edge2.eth[3].Hiqueue.beQueue queueingTime:vector ETV
attr interpolationmode none
attr recordingmode vector
attr source queueingTime(packetPulled)
attr title "queueing times"
attr unit s
vector 65 testfattree.Edge2.eth[3].Hiqueue.beQueue outgoingPacketLengths:vector ETV
attr interpolationmode none
attr recordingmode vector
attr source packetLength(packetPulled)
attr title "outgoing packet lengths"
attr unit b
vector 66 testfattree.Edge2.eth[3].Hiqueue.WrrScheduler "bufferOccupancy (byte)" ETV
vector 67 testfattree.Edge2.eth[3].Hiqueue.WrrScheduler packetLengths:vector ETV
attr interpolationmode none
attr recordingmode vector
attr source packetLength(packetPulled)
attr title "packet lengths"
attr unit b
vector 68 testfattree.Edge2.eth[3].Switchqueue incomingPacketLengths:vector ETV
attr interpolationmode none
attr recordingmode vector
attr source packetLength(packetPushStarted)
attr title "incoming packet lengths"
attr unit b
vector 69 testfattree.Edge2.eth[3].Switchqueue queueLength:vector ETV
attr autoWarmupFilter false
attr interpolationmode sample-hold
attr recordingmode vector
attr source "warmup(atomic(constant0(packetPushEnded) + count(packetPushStarted) - count(packetPulled) - count(packetRemoved) - count(packetDropped)))"
attr title "queue length"
attr unit pk
vector 70 testfattree.Edge2.eth[3].Switchqueue queueBitLength:vector ETV
attr autoWarmupFilter false
attr interpolationmode sample-hold
attr recordingmode vector
attr source "warmup(atomic(constant0(packetPushEnded) + sum(packetLength(packetPushStarted)) - sum(packetLength(packetPulled)) - sum(packetLength(packetRemoved)) - sum(packetLength(packetDropped))))"
attr title "queue bit length"
attr unit b
vector 71 testfattree.Edge2.eth[3].Switchqueue queueingTime:vector ETV
attr interpolationmode none
attr recordingmode vector
attr source queueingTime(packetPulled)
attr title "queueing times"
attr unit s
vector 72 testfattree.Edge2.eth[3].Switchqueue outgoingPacketLengths:vector ETV
attr interpolationmode none
attr recordingmode vector
attr source packetLength(packetPulled)
attr title "outgoing packet lengths"
attr unit b
vector 73 testfattree.Edge2.eth[3].mac packetReceivedFromUpper:vector(packetBytes) ETV
attr interpolationmode none
attr recordingmode vector(packetBytes)
attr source packetReceivedFromUpper
attr title "packet bytes from higher layer, packetBytes"
vector 74 testfattree.Edge2.eth[3].mac txPk:vector(packetBytes) ETV
attr interpolationmode none
attr recordingmode vector(packetBytes)
attr source packetSentToLower
attr title "packets transmitted, packetBytes"
vector 75 testfattree.Edge2.eth[3].Hiqueue.Priority_1 "queuelength (bit)" ETV
vector 76 testfattree.Edge2.eth[3].Hiqueue.Priority_1 incomingPacketLengths:vector ETV
attr interpolationmode none
attr recordingmode vector
attr source packetLength(packetPushStarted)
attr title "incoming packet lengths"
attr unit b
vector 77 testfattree.Edge2.eth[3].Hiqueue.Priority_1 queueingTime:vector ETV
attr interpolationmode none
attr recordingmode vector
attr source queueingTime(packetPulled)
attr title "queueing times"
attr unit s
vector 78 testfattree.Edge2.eth[3].Hiqueue.Priority_1 outgoingPacketLengths:vector ETV
attr interpolationmode none
attr recordingmode vector
attr source packetLength(packetPulled)
attr title "outgoing packet lengths"
attr unit b
vector 79 testfattree.Edge2.eth[3].Hiqueue.PriorityScheduler packetLengths:vector ETV
attr interpolationmode none
attr recordingmode vector
attr source packetLength(packetPulled)
attr title "packet lengths"
attr unit b
vector 80 testfattree.Agre2.eth[1].mac rxPkOk:vector(packetBytes) ETV
attr interpolationmode none
attr recordingmode vector(packetBytes)
attr source rxPkOk
attr title "packets received OK, packetBytes"
vector 81 testfattree.Agre2.eth[1].mac passedUpPk:vector(packetBytes) ETV
attr interpolationmode none
attr recordingmode vector(packetBytes)
attr source packetSentToUpper
attr title "packets passed to higher layer, packetBytes"
vector 82 testfattree.Agre2.ethernet decapPk:vector(packetBytes) ETV
attr interpolationmode none
attr recordingmode vector(packetBytes)
attr source decapPk
attr title "packets decapsulated, packetBytes"
vector 83 testfattree.Agre2.ethernet encapPk:vector(packetBytes) ETV
attr interpolationmode none
attr recordingmode vector(packetBytes)
attr source encapPk
attr title "packets encapsulated, packetBytes"
vector 84 testfattree.Agre2.eth[3].Hiqueue.beQueue "queuelength (bit)" ETV
vector 85 testfattree.Agre2.eth[3].Hiqueue.beQueue incomingPacketLengths:vector ETV
attr interpolationmode none
attr recordingmode vector
attr source packetLength(packetPushStarted)
attr title "incoming packet lengths"
attr unit b
vector 86 testfattree.Agre2.eth[3].Hiqueue.beQueue queueingTime:vector ETV
attr interpolationmode none
attr recordingmode vector
attr source queueingTime(packetPulled)
attr title "queueing times"
attr unit s
vector 87 testfattree.Agre2.eth[3].Hiqueue.beQueue outgoingPacketLengths:vector ETV
attr interpolationmode none
attr recordingmode vector
attr source packetLength(packetPulled)
attr title "outgoing packet lengths"
attr unit b
vector 88 testfattree.Agre2.eth[3].Hiqueue.WrrScheduler "bufferOccupancy (byte)" ETV
vector 89 testfattree.Agre2.eth[3].Hiqueue.WrrScheduler packetLengths:vector ETV
attr interpolationmode none
attr recordingmode vector
attr source packetLength(packetPulled)
attr title "packet lengths"
attr unit b
vector 90 testfattree.Agre2.eth[3].Switchqueue incomingPacketLengths:vector ETV
attr interpolationmode none
attr recordingmode vector
attr source packetLength(packetPushStarted)
attr title "incoming packet lengths"
attr unit b
vector 91 testfattree.Agre2.eth[3].Switchqueue queueLength:vector ETV
attr autoWarmupFilter false
attr interpolationmode sample-hold
attr recordingmode vector
attr source "warmup(atomic(constant0(packetPushEnded) + count(packetPushStarted) - count(packetPulled) - count(packetRemoved) - count(packetDropped)))"
attr title "queue length"
attr unit pk
vector 92 testfattree.Agre2.eth[3].Switchqueue queueBitLength:vector ETV
attr autoWarmupFilter false
attr interpolationmode sample-hold
attr recordingmode vector
attr source "warmup(atomic(constant0(packetPushEnded) + sum(packetLength(packetPushStarted)) - sum(packetLength(packetPulled)) - sum(packetLength(packetRemoved)) - sum(packetLength(packetDropped))))"
attr title "queue bit length"
attr unit b
vector 93 testfattree.Agre2.eth[3].Switchqueue queueingTime:vector ETV
attr interpolationmode none
attr recordingmode vector
attr source queueingTime(packetPulled)
attr title "queueing times"
attr unit s
vector 94 testfattree.Agre2.eth[3].Switchqueue outgoingPacketLengths:vector ETV
attr interpolationmode none
attr recordingmode vector
attr source packetLength(packetPulled)
attr title "outgoing packet lengths"
attr unit b
vector 95 testfattree.Agre2.eth[3].mac packetReceivedFromUpper:vector(packetBytes) ETV
attr interpolationmode none
attr recordingmode vector(packetBytes)
attr source packetReceivedFromUpper
attr title "packet bytes from higher layer, packetBytes"
vector 96 testfattree.Agre2.eth[3].mac txPk:vector(packetBytes) ETV
attr interpolationmode none
attr recordingmode vector(packetBytes)
attr source packetSentToLower
attr title "packets transmitted, packetBytes"
vector 97 testfattree.Agre2.eth[3].Hiqueue.Priority_1 "queuelength (bit)" ETV
vector 98 testfattree.Agre2.eth[3].Hiqueue.Priority_1 incomingPacketLengths:vector ETV
attr interpolationmode none
attr recordingmode vector
attr source packetLength(packetPushStarted)
attr title "incoming packet lengths"
attr unit b
vector 99 testfattree.Agre2.eth[3].Hiqueue.Priority_1 queueingTime:vector ETV
attr interpolationmode none
attr recordingmode vector
attr source queueingTime(packetPulled)
attr title "queueing times"
attr unit s
vector 100 testfattree.Agre2.eth[3].Hiqueue.Priority_1 outgoingPacketLengths:vector ETV
attr interpolationmode none
attr recordingmode vector
attr source packetLength(packetPulled)
attr title "outgoing packet lengths"
attr unit b
vector 101 testfattree.Agre2.eth[3].Hiqueue.PriorityScheduler packetLengths:vector ETV
attr interpolationmode none
attr recordingmode vector
attr source packetLength(packetPulled)
attr title "packet lengths"
attr unit b
vector 102 testfattree.Core4.eth[0].mac rxPkOk:vector(packetBytes) ETV
attr interpolationmode none
attr recordingmode vector(packetBytes)
attr source rxPkOk
attr title "packets received OK, packetBytes"
vector 103 testfattree.Core4.eth[0].mac passedUpPk:vector(packetBytes) ETV
attr interpolationmode none
attr recordingmode vector(packetBytes)
attr source packetSentToUpper
attr title "packets passed to higher layer, packetBytes"
vector 104 testfattree.Core4.ethernet decapPk:vector(packetBytes) ETV
attr interpolationmode none
attr recordingmode vector(packetBytes)
attr source decapPk
attr title "packets decapsulated, packetBytes"
vector 105 testfattree.Core4.ethernet encapPk:vector(packetBytes) ETV
attr interpolationmode none
attr recordingmode vector(packetBytes)
attr source encapPk
attr title "packets encapsulated, packetBytes"
vector 106 testfattree.Core4.eth[3].Hiqueue.beQueue "queuelength (bit)" ETV
vector 107 testfattree.Core4.eth[3].Hiqueue.beQueue incomingPacketLengths:vector ETV
attr interpolationmode none
attr recordingmode vector
attr source packetLength(packetPushStarted)
attr title "incoming packet lengths"
attr unit b
vector 108 testfattree.Core4.eth[3].Hiqueue.beQueue queueingTime:vector ETV
attr interpolationmode none
attr recordingmode vector
attr source queueingTime(packetPulled)
attr title "queueing times"
attr unit s
vector 109 testfattree.Core4.eth[3].Hiqueue.beQueue outgoingPacketLengths:vector ETV
attr interpolationmode none
attr recordingmode vector
attr source packetLength(packetPulled)
attr title "outgoing packet lengths"
attr unit b
vector 110 testfattree.Core4.eth[3].Hiqueue.WrrScheduler "bufferOccupancy (byte)" ETV
vector 111 testfattree.Core4.eth[3].Hiqueue.WrrScheduler packetLengths:vector ETV
attr interpolationmode none
attr recordingmode vector
attr source packetLength(packetPulled)
attr title "packet lengths"
attr unit b
vector 112 testfattree.Core4.eth[3].Switchqueue incomingPacketLengths:vector ETV
attr interpolationmode none
attr recordingmode vector
attr source packetLength(packetPushStarted)
attr title "incoming packet lengths"
attr unit b
vector 113 testfattree.Core4.eth[3].Switchqueue queueLength:vector ETV
attr autoWarmupFilter false
attr interpolationmode sample-hold
attr recordingmode vector
attr source "warmup(atomic(constant0(packetPushEnded) + count(packetPushStarted) - count(packetPulled) - count(packetRemoved) - count(packetDropped)))"
attr title "queue length"
attr unit pk
vector 114 testfattree.Core4.eth[3].Switchqueue queueBitLength:vector ETV
attr autoWarmupFilter false
attr interpolationmode sample-hold
attr recordingmode vector
attr source "warmup(atomic(constant0(packetPushEnded) + sum(packetLength(packetPushStarted)) - sum(packetLength(packetPulled)) - sum(packetLength(packetRemoved)) - sum(packetLength(packetDropped))))"
attr title "queue bit length"
attr unit b
vector 115 testfattree.Core4.eth[3].Switchqueue queueingTime:vector ETV
attr interpolationmode none
attr recordingmode vector
attr source queueingTime(packetPulled)
attr title "queueing times"
attr unit s
vector 116 testfattree.Core4.eth[3].Switchqueue outgoingPacketLengths:vector ETV
attr interpolationmode none
attr recordingmode vector
attr source packetLength(packetPulled)
attr title "outgoing packet lengths"
attr unit b
vector 117 testfattree.Core4.eth[3].mac packetReceivedFromUpper:vector(packetBytes) ETV
attr interpolationmode none
attr recordingmode vector(packetBytes)
attr source packetReceivedFromUpper
attr title "packet bytes from higher layer, packetBytes"
vector 118 testfattree.Core4.eth[3].mac txPk:vector(packetBytes) ETV
attr interpolationmode none
attr recordingmode vector(packetBytes)
attr source packetSentToLower
attr title "packets transmitted, packetBytes"
vector 119 testfattree.Core4.eth[3].Hiqueue.Priority_1 "queuelength (bit)" ETV
vector 120 testfattree.Core4.eth[3].Hiqueue.Priority_1 incomingPacketLengths:vector ETV
attr interpolationmode none
attr recordingmode vector
attr source packetLength(packetPushStarted)
attr title "incoming packet lengths"
attr unit b
vector 121 testfattree.Core4.eth[3].Hiqueue.Priority_1 queueingTime:vector ETV
attr interpolationmode none
attr recordingmode vector
attr source queueingTime(packetPulled)
attr title "queueing times"
attr unit s
vector 122 testfattree.Core4.eth[3].Hiqueue.Priority_1 outgoingPacketLengths:vector ETV
attr interpolationmode none
attr recordingmode vector
attr source packetLength(packetPulled)
attr title "outgoing packet lengths"
attr unit b
vector 123 testfattree.Core4.eth[3].Hiqueue.PriorityScheduler packetLengths:vector ETV
attr interpolationmode none
attr recordingmode vector
attr source packetLength(packetPulled)
attr title "packet lengths"
attr unit b
vector 124 testfattree.Agre8.eth[3].mac rxPkOk:vector(packetBytes) ETV
attr interpolationmode none
attr recordingmode vector(packetBytes)
attr source rxPkOk
attr title "packets received OK, packetBytes"
vector 125 testfattree.Agre8.eth[3].mac passedUpPk:vector(packetBytes) ETV
attr interpolationmode none
attr recordingmode vector(packetBytes)
attr source packetSentToUpper
attr title "packets passed to higher layer, packetBytes"
vector 126 testfattree.Agre8.ethernet decapPk:vector(packetBytes) ETV
attr interpolationmode none
attr recordingmode vector(packetBytes)
attr source decapPk
attr title "packets decapsulated, packetBytes"
vector 127 testfattree.Agre8.ethernet encapPk:vector(packetBytes) ETV
attr interpolationmode none
attr recordingmode vector(packetBytes)
attr source encapPk
attr title "packets encapsulated, packetBytes"
vector 128 testfattree.Agre8.eth[1].Hiqueue.beQueue "queuelength (bit)" ETV
vector 129 testfattree.Agre8.eth[1].Hiqueue.beQueue incomingPacketLengths:vector ETV
attr interpolationmode none
attr recordingmode vector
attr source packetLength(packetPushStarted)
attr title "incoming packet lengths"
attr unit b
vector 130 testfattree.Agre8.eth[1].Hiqueue.beQueue queueingTime:vector ETV
attr interpolationmode none
attr recordingmode vector
attr source queueingTime(packetPulled)
attr title "queueing times"
attr unit s
vector 131 testfattree.Agre8.eth[1].Hiqueue.beQueue outgoingPacketLengths:vector ETV
attr interpolationmode none
attr recordingmode vector
attr source packetLength(packetPulled)
attr title "outgoing packet lengths"
attr unit b
vector 132 testfattree.Agre8.eth[1].Hiqueue.WrrScheduler "bufferOccupancy (byte)" ETV
vector 133 testfattree.Agre8.eth[1].Hiqueue.WrrScheduler packetLengths:vector ETV
attr interpolationmode none
attr recordingmode vector
attr source packetLength(packetPulled)
attr title "packet lengths"
attr unit b
vector 134 testfattree.Agre8.eth[1].Switchqueue incomingPacketLengths:vector ETV
attr interpolationmode none
attr recordingmode vector
attr source packetLength(packetPushStarted)
attr title "incoming packet lengths"
attr unit b
vector 135 testfattree.Agre8.eth[1].Switchqueue queueLength:vector ETV
attr autoWarmupFilter false
attr interpolationmode sample-hold
attr recordingmode vector
attr source "warmup(atomic(constant0(packetPushEnded) + count(packetPushStarted) - count(packetPulled) - count(packetRemoved) - count(packetDropped)))"
attr title "queue length"
attr unit pk
vector 136 testfattree.Agre8.eth[1].Switchqueue queueBitLength:vector ETV
attr autoWarmupFilter false
attr interpolationmode sample-hold
attr recordingmode vector
attr source "warmup(atomic(constant0(packetPushEnded) + sum(packetLength(packetPushStarted)) - sum(packetLength(packetPulled)) - sum(packetLength(packetRemoved)) - sum(packetLength(packetDropped))))"
attr title "queue bit length"
attr unit b
vector 137 testfattree.Agre8.eth[1].Switchqueue queueingTime:vector ETV
attr interpolationmode none
attr recordingmode vector
attr source queueingTime(packetPulled)
attr title "queueing times"
attr unit s
vector 138 testfattree.Agre8.eth[1].Switchqueue outgoingPacketLengths:vector ETV
attr interpolationmode none
attr recordingmode vector
attr source packetLength(packetPulled)
attr title "outgoing packet lengths"
attr unit b
vector 139 testfattree.Agre8.eth[1].mac packetReceivedFromUpper:vector(packetBytes) ETV
attr interpolationmode none
attr recordingmode vector(packetBytes)
attr source packetReceivedFromUpper
attr title "packet bytes from higher layer, packetBytes"
vector 140 testfattree.Agre8.eth[1].mac txPk:vector(packetBytes) ETV
attr interpolationmode none
attr recordingmode vector(packetBytes)
attr source packetSentToLower
attr title "packets transmitted, packetBytes"
vector 141 testfattree.Edge8.eth[3].mac rxPkOk:vector(packetBytes) ETV
attr interpolationmode none
attr recordingmode vector(packetBytes)
attr source rxPkOk
attr title "packets received OK, packetBytes"
vector 142 testfattree.Edge8.eth[3].mac passedUpPk:vector(packetBytes) ETV
attr interpolationmode none
attr recordingmode vector(packetBytes)
attr source packetSentToUpper
attr title "packets passed to higher layer, packetBytes"
vector 143 testfattree.Edge8.ethernet decapPk:vector(packetBytes) ETV
attr interpolationmode none
attr recordingmode vector(packetBytes)
attr source decapPk
attr title "packets decapsulated, packetBytes"
vector 144 testfattree.Edge8.ethernet encapPk:vector(packetBytes) ETV
attr interpolationmode none
attr recordingmode vector(packetBytes)
attr source encapPk
attr title "packets encapsulated, packetBytes"
vector 145 testfattree.Edge8.eth[0].Hiqueue.beQueue "queuelength (bit)" ETV
vector 146 testfattree.Edge8.eth[0].Hiqueue.beQueue incomingPacketLengths:vector ETV
attr interpolationmode none
attr recordingmode vector
attr source packetLength(packetPushStarted)
attr title "incoming packet lengths"
attr unit b
vector 147 testfattree.Edge8.eth[0].Hiqueue.beQueue queueingTime:vector ETV
attr interpolationmode none
attr recordingmode vector
attr source queueingTime(packetPulled)
attr title "queueing times"
attr unit s
vector 148 testfattree.Edge8.eth[0].Hiqueue.beQueue outgoingPacketLengths:vector ETV
attr interpolationmode none
attr recordingmode vector
attr source packetLength(packetPulled)
attr title "outgoing packet lengths"
attr unit b
vector 149 testfattree.Edge8.eth[0].Hiqueue.WrrScheduler "bufferOccupancy (byte)" ETV
vector 150 testfattree.Edge8.eth[0].Hiqueue.WrrScheduler packetLengths:vector ETV
attr interpolationmode none
attr recordingmode vector
attr source packetLength(packetPulled)
attr title "packet lengths"
attr unit b
vector 151 testfattree.Edge8.eth[0].Switchqueue incomingPacketLengths:vector ETV
attr interpolationmode none
attr recordingmode vector
attr source packetLength(packetPushStarted)
attr title "incoming packet lengths"
attr unit b
vector 152 testfattree.Edge8.eth[0].Switchqueue queueLength:vector ETV
attr autoWarmupFilter false
attr interpolationmode sample-hold
attr recordingmode vector
attr source "warmup(atomic(constant0(packetPushEnded) + count(packetPushStarted) - count(packetPulled) - count(packetRemoved) - count(packetDropped)))"
attr title "queue length"
attr unit pk
vector 153 testfattree.Edge8.eth[0].Switchqueue queueBitLength:vector ETV
attr autoWarmupFilter false
attr interpolationmode sample-hold
attr recordingmode vector
attr source "warmup(atomic(constant0(packetPushEnded) + sum(packetLength(packetPushStarted)) - sum(packetLength(packetPulled)) - sum(packetLength(packetRemoved)) - sum(packetLength(packetDropped))))"
attr title "queue bit length"
attr unit b
vector 154 testfattree.Edge8.eth[0].Switchqueue queueingTime:vector ETV
attr interpolationmode none
attr recordingmode vector
attr source queueingTime(packetPulled)
attr title "queueing times"
attr unit s
vector 155 testfattree.Edge8.eth[0].Switchqueue outgoingPacketLengths:vector ETV
attr interpolationmode none
attr recordingmode vector
attr source packetLength(packetPulled)
attr title "outgoing packet lengths"
attr unit b
vector 156 testfattree.Edge8.eth[0].mac packetReceivedFromUpper:vector(packetBytes) ETV
attr interpolationmode none
attr recordingmode vector(packetBytes)
attr source packetReceivedFromUpper
attr title "packet bytes from higher layer, packetBytes"
vector 157 testfattree.Edge8.eth[0].mac txPk:vector(packetBytes) ETV
attr interpolationmode none
attr recordingmode vector(packetBytes)
attr source packetSentToLower
attr title "packets transmitted, packetBytes"
vector 158 testfattree.Agre8.eth[1].Hiqueue.Priority_1 "queuelength (bit)" ETV
vector 159 testfattree.Agre8.eth[1].Hiqueue.Priority_1 incomingPacketLengths:vector ETV
attr interpolationmode none
attr recordingmode vector
attr source packetLength(packetPushStarted)
attr title "incoming packet lengths"
attr unit b
vector 160 testfattree.Agre8.eth[1].Hiqueue.Priority_1 queueingTime:vector ETV
attr interpolationmode none
attr recordingmode vector
attr source queueingTime(packetPulled)
attr title "queueing times"
attr unit s
vector 161 testfattree.Agre8.eth[1].Hiqueue.Priority_1 outgoingPacketLengths:vector ETV
attr interpolationmode none
attr recordingmode vector
attr source packetLength(packetPulled)
attr title "outgoing packet lengths"
attr unit b
vector 162 testfattree.Agre8.eth[1].Hiqueue.PriorityScheduler packetLengths:vector ETV
attr interpolationmode none
attr recordingmode vector
attr source packetLength(packetPulled)
attr title "packet lengths"
attr unit b
vector 163 testfattree.Host15.eth[0].mac rxPkOk:vector(packetBytes) ETV
attr interpolationmode none
attr recordingmode vector(packetBytes)
attr source rxPkOk
attr title "packets received OK, packetBytes"
vector 164 testfattree.Host15.eth[0].mac passedUpPk:vector(packetBytes) ETV
attr interpolationmode none
attr recordingmode vector(packetBytes)
attr source packetSentToUpper
attr title "packets passed to higher layer, packetBytes"
vector 165 testfattree.Host15.ethernet decapPk:vector(packetBytes) ETV
attr interpolationmode none
attr recordingmode vector(packetBytes)
attr source decapPk
attr title "packets decapsulated, packetBytes"
vector 166 testfattree.Host15.ethernet encapPk:vector(packetBytes) ETV
attr interpolationmode none
attr recordingmode vector(packetBytes)
attr source encapPk
attr title "packets encapsulated, packetBytes"
vector 167 testfattree.Host15.eth[0].Hostqueue incomingPacketLengths:vector ETV
attr interpolationmode none
attr recordingmode vector
attr source packetLength(packetPushStarted)
attr title "incoming packet lengths"
attr unit b
vector 168 testfattree.Host15.eth[0].Hostqueue queueingTime:vector ETV
attr interpolationmode none
attr recordingmode vector
attr source queueingTime(packetPulled)
attr title "queueing times"
attr unit s
vector 169 testfattree.Host15.eth[0].Hostqueue outgoingPacketLengths:vector ETV
attr interpolationmode none
attr recordingmode vector
attr source packetLength(packetPulled)
attr title "outgoing packet lengths"
attr unit b
vector 170 testfattree.Host15.eth[0].mac packetReceivedFromUpper:vector(packetBytes) ETV
attr interpolationmode none
attr recordingmode vector(packetBytes)
attr source packetReceivedFromUpper
attr title "packet bytes from higher layer, packetBytes"
vector 171 testfattree.Host15.eth[0].Hostqueue queueLength:vector ETV
attr autoWarmupFilter false
attr interpolationmode sample-hold
attr recordingmode vector
attr source "warmup(atomic(constant0(packetPushEnded) + count(packetPushStarted) - count(packetPulled) - count(packetRemoved) - count(packetDropped)))"
attr title "queue length"
attr unit pk
vector 172 testfattree.Host15.eth[0].Hostqueue queueBitLength:vector ETV
attr autoWarmupFilter false
attr interpolationmode sample-hold
attr recordingmode vector
attr source "warmup(atomic(constant0(packetPushEnded) + sum(packetLength(packetPushStarted)) - sum(packetLength(packetPulled)) - sum(packetLength(packetRemoved)) - sum(packetLength(packetDropped))))"
attr title "queue bit length"
attr unit b
vector 173 testfattree.Host15.eth[0].mac txPk:vector(packetBytes) ETV
attr interpolationmode none
attr recordingmode vector(packetBytes)
attr source packetSentToLower
attr title "packets transmitted, packetBytes"
vector 174 testfattree.Edge8.eth[0].mac rxPkOk:vector(packetBytes) ETV
attr interpolationmode none
attr recordingmode vector(packetBytes)
attr source rxPkOk
attr title "packets received OK, packetBytes"
vector 175 testfattree.Edge8.eth[0].mac passedUpPk:vector(packetBytes) ETV
attr interpolationmode none
attr recordingmode vector(packetBytes)
attr source packetSentToUpper
attr title "packets passed to higher layer, packetBytes"
vector 176 testfattree.Edge8.eth[2].Hiqueue.creditQueue incomingPacketLengths:vector ETV
attr interpolationmode none
attr recordingmode vector
attr source packetLength(packetPushStarted)
attr title "incoming packet lengths"
attr unit b
vector 177 testfattree.Edge8.eth[2].Hiqueue.creditQueue queueingTime:vector ETV
attr interpolationmode none
attr recordingmode vector
attr source queueingTime(packetPulled)
attr title "queueing times"
attr unit s
vector 178 testfattree.Edge8.eth[2].Hiqueue.creditQueue outgoingPacketLengths:vector ETV
attr interpolationmode none
attr recordingmode vector
attr source packetLength(packetPulled)
attr title "outgoing packet lengths"
attr unit b
vector 179 testfattree.Edge8.eth[2].Hiqueue.WrrScheduler "bufferOccupancy (byte)" ETV
vector 180 testfattree.Edge8.eth[2].Hiqueue.WrrScheduler packetLengths:vector ETV
attr interpolationmode none
attr recordingmode vector
attr source packetLength(packetPulled)
attr title "packet lengths"
attr unit b
vector 181 testfattree.Edge8.eth[2].Switchqueue incomingPacketLengths:vector ETV
attr interpolationmode none
attr recordingmode vector
attr source packetLength(packetPushStarted)
attr title "incoming packet lengths"
attr unit b
vector 182 testfattree.Edge8.eth[2].Switchqueue queueLength:vector ETV
attr autoWarmupFilter false
attr interpolationmode sample-hold
attr recordingmode vector
attr source "warmup(atomic(constant0(packetPushEnded) + count(packetPushStarted) - count(packetPulled) - count(packetRemoved) - count(packetDropped)))"
attr title "queue length"
attr unit pk
vector 183 testfattree.Edge8.eth[2].Switchqueue queueBitLength:vector ETV
attr autoWarmupFilter false
attr interpolationmode sample-hold
attr recordingmode vector
attr source "warmup(atomic(constant0(packetPushEnded) + sum(packetLength(packetPushStarted)) - sum(packetLength(packetPulled)) - sum(packetLength(packetRemoved)) - sum(packetLength(packetDropped))))"
attr title "queue bit length"
attr unit b
vector 184 testfattree.Edge8.eth[2].Switchqueue queueingTime:vector ETV
attr interpolationmode none
attr recordingmode vector
attr source queueingTime(packetPulled)
attr title "queueing times"
attr unit s
vector 185 testfattree.Edge8.eth[2].Switchqueue outgoingPacketLengths:vector ETV
attr interpolationmode none
attr recordingmode vector
attr source packetLength(packetPulled)
attr title "outgoing packet lengths"
attr unit b
vector 186 testfattree.Edge8.eth[2].mac packetReceivedFromUpper:vector(packetBytes) ETV
attr interpolationmode none
attr recordingmode vector(packetBytes)
attr source packetReceivedFromUpper
attr title "packet bytes from higher layer, packetBytes"
vector 187 testfattree.Edge8.eth[2].Hiqueue.creditQueue queueLength:vector ETV
attr autoWarmupFilter false
attr interpolationmode sample-hold
attr recordingmode vector
attr source "warmup(atomic(constant0(packetPushEnded) + count(packetPushStarted) - count(packetPulled) - count(packetRemoved) - count(packetDropped)))"
attr title "queue length"
attr unit pk
vector 188 testfattree.Edge8.eth[2].Hiqueue.creditQueue queueBitLength:vector ETV
attr autoWarmupFilter false
attr interpolationmode sample-hold
attr recordingmode vector
attr source "warmup(atomic(constant0(packetPushEnded) + sum(packetLength(packetPushStarted)) - sum(packetLength(packetPulled)) - sum(packetLength(packetRemoved)) - sum(packetLength(packetDropped))))"
attr title "queue bit length"
attr unit b
vector 189 testfattree.Edge8.eth[2].mac txPk:vector(packetBytes) ETV
attr interpolationmode none
attr recordingmode vector(packetBytes)
attr source packetSentToLower
attr title "packets transmitted, packetBytes"
vector 190 testfattree.Edge8.eth[0].Hiqueue.Priority_1 "queuelength (bit)" ETV
vector 191 testfattree.Edge8.eth[0].Hiqueue.Priority_1 incomingPacketLengths:vector ETV
attr interpolationmode none
attr recordingmode vector
attr source packetLength(packetPushStarted)
attr title "incoming packet lengths"
attr unit b
vector 192 testfattree.Edge8.eth[0].Hiqueue.Priority_1 queueingTime:vector ETV
attr interpolationmode none
attr recordingmode vector
attr source queueingTime(packetPulled)
attr title "queueing times"
attr unit s
vector 193 testfattree.Edge8.eth[0].Hiqueue.Priority_1 outgoingPacketLengths:vector ETV
attr interpolationmode none
attr recordingmode vector
attr source packetLength(packetPulled)
attr title "outgoing packet lengths"
attr unit b
vector 194 testfattree.Edge8.eth[0].Hiqueue.PriorityScheduler packetLengths:vector ETV
attr interpolationmode none
attr recordingmode vector
attr source packetLength(packetPulled)
attr title "packet lengths"
attr unit b
vector 195 testfattree.Agre7.eth[1].mac rxPkOk:vector(packetBytes) ETV
attr interpolationmode none
attr recordingmode vector(packetBytes)
attr source rxPkOk
attr title "packets received OK, packetBytes"
vector 196 testfattree.Agre7.eth[1].mac passedUpPk:vector(packetBytes) ETV
attr interpolationmode none
attr recordingmode vector(packetBytes)
attr source packetSentToUpper
attr title "packets passed to higher layer, packetBytes"
vector 197 testfattree.Agre7.ethernet decapPk:vector(packetBytes) ETV
attr interpolationmode none
attr recordingmode vector(packetBytes)
attr source decapPk
attr title "packets decapsulated, packetBytes"
vector 198 testfattree.Agre7.ethernet encapPk:vector(packetBytes) ETV
attr interpolationmode none
attr recordingmode vector(packetBytes)
attr source encapPk
attr title "packets encapsulated, packetBytes"
vector 199 testfattree.Agre7.eth[2].Hiqueue.creditQueue incomingPacketLengths:vector ETV
attr interpolationmode none
attr recordingmode vector
attr source packetLength(packetPushStarted)
attr title "incoming packet lengths"
attr unit b
vector 200 testfattree.Agre7.eth[2].Hiqueue.creditQueue queueingTime:vector ETV
attr interpolationmode none
attr recordingmode vector
attr source queueingTime(packetPulled)
attr title "queueing times"
attr unit s
vector 201 testfattree.Agre7.eth[2].Hiqueue.creditQueue outgoingPacketLengths:vector ETV
attr interpolationmode none
attr recordingmode vector
attr source packetLength(packetPulled)
attr title "outgoing packet lengths"
attr unit b
vector 202 testfattree.Agre7.eth[2].Hiqueue.WrrScheduler "bufferOccupancy (byte)" ETV
vector 203 testfattree.Agre7.eth[2].Hiqueue.WrrScheduler packetLengths:vector ETV
attr interpolationmode none
attr recordingmode vector
attr source packetLength(packetPulled)
attr title "packet lengths"
attr unit b
vector 204 testfattree.Agre7.eth[2].Switchqueue incomingPacketLengths:vector ETV
attr interpolationmode none
attr recordingmode vector
attr source packetLength(packetPushStarted)
attr title "incoming packet lengths"
attr unit b
vector 205 testfattree.Agre7.eth[2].Switchqueue queueLength:vector ETV
attr autoWarmupFilter false
attr interpolationmode sample-hold
attr recordingmode vector
attr source "warmup(atomic(constant0(packetPushEnded) + count(packetPushStarted) - count(packetPulled) - count(packetRemoved) - count(packetDropped)))"
attr title "queue length"
attr unit pk
vector 206 testfattree.Agre7.eth[2].Switchqueue queueBitLength:vector ETV
attr autoWarmupFilter false
attr interpolationmode sample-hold
attr recordingmode vector
attr source "warmup(atomic(constant0(packetPushEnded) + sum(packetLength(packetPushStarted)) - sum(packetLength(packetPulled)) - sum(packetLength(packetRemoved)) - sum(packetLength(packetDropped))))"
attr title "queue bit length"
attr unit b
vector 207 testfattree.Agre7.eth[2].Switchqueue queueingTime:vector ETV
attr interpolationmode none
attr recordingmode vector
attr source queueingTime(packetPulled)
attr title "queueing times"
attr unit s
vector 208 testfattree.Agre7.eth[2].Switchqueue outgoingPacketLengths:vector ETV
attr interpolationmode none
attr recordingmode vector
attr source packetLength(packetPulled)
attr title "outgoing packet lengths"
attr unit b
vector 209 testfattree.Agre7.eth[2].mac packetReceivedFromUpper:vector(packetBytes) ETV
attr interpolationmode none
attr recordingmode vector(packetBytes)
attr source packetReceivedFromUpper
attr title "packet bytes from higher layer, packetBytes"
vector 210 testfattree.Agre7.eth[2].Hiqueue.creditQueue queueLength:vector ETV
attr autoWarmupFilter false
attr interpolationmode sample-hold
attr recordingmode vector
attr source "warmup(atomic(constant0(packetPushEnded) + count(packetPushStarted) - count(packetPulled) - count(packetRemoved) - count(packetDropped)))"
attr title "queue length"
attr unit pk
vector 211 testfattree.Agre7.eth[2].Hiqueue.creditQueue queueBitLength:vector ETV
attr autoWarmupFilter false
attr interpolationmode sample-hold
attr recordingmode vector
attr source "warmup(atomic(constant0(packetPushEnded) + sum(packetLength(packetPushStarted)) - sum(packetLength(packetPulled)) - sum(packetLength(packetRemoved)) - sum(packetLength(packetDropped))))"
attr title "queue bit length"
attr unit b
vector 212 testfattree.Agre7.eth[2].mac txPk:vector(packetBytes) ETV
attr interpolationmode none
attr recordingmode vector(packetBytes)
attr source packetSentToLower
attr title "packets transmitted, packetBytes"
vector 213 testfattree.Host15.UdpCC ecn ETV
vector 214 testfattree.Host15.UdpCC "currentRTT (s)" ETV
vector 215 testfattree.Host15.UdpCC ratio ETV
vector 216 testfattree.Host15.UdpCC "mpd (s)" ETV
vector 217 testfattree.Host15.UdpCC "target_delay (s)" ETV
vector 218 testfattree.Host15.UdpCC ecnratio ETV
vector 219 testfattree.Host15.UdpCC ECNa ETV
vector 220 testfattree.Host15.UdpCC currate ETV
vector 221 testfattree.Host15.udp packetReceived:vector(packetBytes) ETV
attr interpolationmode none
attr recordingmode vector(packetBytes)
attr source packetReceived
attr title "packets received, packetBytes"
vector 222 testfattree.Host15.app[0] "goodput (bps)" ETV
vector 223 testfattree.Core1.eth[3].mac rxPkOk:vector(packetBytes) ETV
attr interpolationmode none
attr recordingmode vector(packetBytes)
attr source rxPkOk
attr title "packets received OK, packetBytes"
vector 224 testfattree.Core1.eth[3].mac passedUpPk:vector(packetBytes) ETV
attr interpolationmode none
attr recordingmode vector(packetBytes)
attr source packetSentToUpper
attr title "packets passed to higher layer, packetBytes"
vector 225 testfattree.Core1.ethernet decapPk:vector(packetBytes) ETV
attr interpolationmode none
attr recordingmode vector(packetBytes)
attr source decapPk
attr title "packets decapsulated, packetBytes"
vector 226 testfattree.Core1.ethernet encapPk:vector(packetBytes) ETV
attr interpolationmode none
attr recordingmode vector(packetBytes)
attr source encapPk
attr title "packets encapsulated, packetBytes"
vector 227 testfattree.Core1.eth[0].Hiqueue.creditQueue incomingPacketLengths:vector ETV
attr interpolationmode none
attr recordingmode vector
attr source packetLength(packetPushStarted)
attr title "incoming packet lengths"
attr unit b
vector 228 testfattree.Core1.eth[0].Hiqueue.creditQueue queueingTime:vector ETV
attr interpolationmode none
attr recordingmode vector
attr source queueingTime(packetPulled)
attr title "queueing times"
attr unit s
vector 229 testfattree.Core1.eth[0].Hiqueue.creditQueue outgoingPacketLengths:vector ETV
attr interpolationmode none
attr recordingmode vector
attr source packetLength(packetPulled)
attr title "outgoing packet lengths"
attr unit b
vector 230 testfattree.Core1.eth[0].Hiqueue.WrrScheduler "bufferOccupancy (byte)" ETV
vector 231 testfattree.Core1.eth[0].Hiqueue.WrrScheduler packetLengths:vector ETV
attr interpolationmode none
attr recordingmode vector
attr source packetLength(packetPulled)
attr title "packet lengths"
attr unit b
vector 232 testfattree.Core1.eth[0].Switchqueue incomingPacketLengths:vector ETV
attr interpolationmode none
attr recordingmode vector
attr source packetLength(packetPushStarted)
attr title "incoming packet lengths"
attr unit b
vector 233 testfattree.Core1.eth[0].Switchqueue queueLength:vector ETV
attr autoWarmupFilter false
attr interpolationmode sample-hold
attr recordingmode vector
attr source "warmup(atomic(constant0(packetPushEnded) + count(packetPushStarted) - count(packetPulled) - count(packetRemoved) - count(packetDropped)))"
attr title "queue length"
attr unit pk
vector 234 testfattree.Core1.eth[0].Switchqueue queueBitLength:vector ETV
attr autoWarmupFilter false
attr interpolationmode sample-hold
attr recordingmode vector
attr source "warmup(atomic(constant0(packetPushEnded) + sum(packetLength(packetPushStarted)) - sum(packetLength(packetPulled)) - sum(packetLength(packetRemoved)) - sum(packetLength(packetDropped))))"
attr title "queue bit length"
attr unit b
vector 235 testfattree.Core1.eth[0].Switchqueue queueingTime:vector ETV
attr interpolationmode none
attr recordingmode vector
attr source queueingTime(packetPulled)
attr title "queueing times"
attr unit s
vector 236 testfattree.Core1.eth[0].Switchqueue outgoingPacketLengths:vector ETV
attr interpolationmode none
attr recordingmode vector
attr source packetLength(packetPulled)
attr title "outgoing packet lengths"
attr unit b
vector 237 testfattree.Core1.eth[0].mac packetReceivedFromUpper:vector(packetBytes) ETV
attr interpolationmode none
attr recordingmode vector(packetBytes)
attr source packetReceivedFromUpper
attr title "packet bytes from higher layer, packetBytes"
vector 238 testfattree.Core1.eth[0].Hiqueue.creditQueue queueLength:vector ETV
attr autoWarmupFilter false
attr interpolationmode sample-hold
attr recordingmode vector
attr source "warmup(atomic(constant0(packetPushEnded) + count(packetPushStarted) - count(packetPulled) - count(packetRemoved) - count(packetDropped)))"
attr title "queue length"
attr unit pk
vector 239 testfattree.Core1.eth[0].Hiqueue.creditQueue queueBitLength:vector ETV
attr autoWarmupFilter false
attr interpolationmode sample-hold
attr recordingmode vector
attr source "warmup(atomic(constant0(packetPushEnded) + sum(packetLength(packetPushStarted)) - sum(packetLength(packetPulled)) - sum(packetLength(packetRemoved)) - sum(packetLength(packetDropped))))"
attr title "queue bit length"
attr unit b
vector 240 testfattree.Core1.eth[0].mac txPk:vector(packetBytes) ETV
attr interpolationmode none
attr recordingmode vector(packetBytes)
attr source packetSentToLower
attr title "packets transmitted, packetBytes"
vector 241 testfattree.Agre1.eth[2].mac rxPkOk:vector(packetBytes) ETV
attr interpolationmode none
attr recordingmode vector(packetBytes)
attr source rxPkOk
attr title "packets received OK, packetBytes"
vector 242 testfattree.Agre1.eth[2].mac passedUpPk:vector(packetBytes) ETV
attr interpolationmode none
attr recordingmode vector(packetBytes)
attr source packetSentToUpper
attr title "packets passed to higher layer, packetBytes"
vector 243 testfattree.Agre1.ethernet decapPk:vector(packetBytes) ETV
attr interpolationmode none
attr recordingmode vector(packetBytes)
attr source decapPk
attr title "packets decapsulated, packetBytes"
vector 244 testfattree.Agre1.ethernet encapPk:vector(packetBytes) ETV
attr interpolationmode none
attr recordingmode vector(packetBytes)
attr source encapPk
attr title "packets encapsulated, packetBytes"
vector 245 testfattree.Agre1.eth[1].Hiqueue.creditQueue incomingPacketLengths:vector ETV
attr interpolationmode none
attr recordingmode vector
attr source packetLength(packetPushStarted)
attr title "incoming packet lengths"
attr unit b
vector 246 testfattree.Agre1.eth[1].Hiqueue.creditQueue queueingTime:vector ETV
attr interpolationmode none
attr recordingmode vector
attr source queueingTime(packetPulled)
attr title "queueing times"
attr unit s
vector 247 testfattree.Agre1.eth[1].Hiqueue.creditQueue outgoingPacketLengths:vector ETV
attr interpolationmode none
attr recordingmode vector
attr source packetLength(packetPulled)
attr title "outgoing packet lengths"
attr unit b
vector 248 testfattree.Agre1.eth[1].Hiqueue.WrrScheduler "bufferOccupancy (byte)" ETV
vector 249 testfattree.Agre1.eth[1].Hiqueue.WrrScheduler packetLengths:vector ETV
attr interpolationmode none
attr recordingmode vector
attr source packetLength(packetPulled)
attr title "packet lengths"
attr unit b
vector 250 testfattree.Agre1.eth[1].Switchqueue incomingPacketLengths:vector ETV
attr interpolationmode none
attr recordingmode vector
attr source packetLength(packetPushStarted)
attr title "incoming packet lengths"
attr unit b
vector 251 testfattree.Agre1.eth[1].Switchqueue queueLength:vector ETV
attr autoWarmupFilter false
attr interpolationmode sample-hold
attr recordingmode vector
attr source "warmup(atomic(constant0(packetPushEnded) + count(packetPushStarted) - count(packetPulled) - count(packetRemoved) - count(packetDropped)))"
attr title "queue length"
attr unit pk
vector 252 testfattree.Agre1.eth[1].Switchqueue queueBitLength:vector ETV
attr autoWarmupFilter false
attr interpolationmode sample-hold
attr recordingmode vector
attr source "warmup(atomic(constant0(packetPushEnded) + sum(packetLength(packetPushStarted)) - sum(packetLength(packetPulled)) - sum(packetLength(packetRemoved)) - sum(packetLength(packetDropped))))"
attr title "queue bit length"
attr unit b
vector 253 testfattree.Agre1.eth[1].Switchqueue queueingTime:vector ETV
attr interpolationmode none
attr recordingmode vector
attr source queueingTime(packetPulled)
attr title "queueing times"
attr unit s
vector 254 testfattree.Agre1.eth[1].Switchqueue outgoingPacketLengths:vector ETV
attr interpolationmode none
attr recordingmode vector
attr source packetLength(packetPulled)
attr title "outgoing packet lengths"
attr unit b
vector 255 testfattree.Agre1.eth[1].mac packetReceivedFromUpper:vector(packetBytes) ETV
attr interpolationmode none
attr recordingmode vector(packetBytes)
attr source packetReceivedFromUpper
attr title "packet bytes from higher layer, packetBytes"
vector 256 testfattree.Agre1.eth[1].Hiqueue.creditQueue queueLength:vector ETV
attr autoWarmupFilter false
attr interpolationmode sample-hold
attr recordingmode vector
attr source "warmup(atomic(constant0(packetPushEnded) + count(packetPushStarted) - count(packetPulled) - count(packetRemoved) - count(packetDropped)))"
attr title "queue length"
attr unit pk
vector 257 testfattree.Agre1.eth[1].Hiqueue.creditQueue queueBitLength:vector ETV
attr autoWarmupFilter false
attr interpolationmode sample-hold
attr recordingmode vector
attr source "warmup(atomic(constant0(packetPushEnded) + sum(packetLength(packetPushStarted)) - sum(packetLength(packetPulled)) - sum(packetLength(packetRemoved)) - sum(packetLength(packetDropped))))"
attr title "queue bit length"
attr unit b
vector 258 testfattree.Agre1.eth[1].mac txPk:vector(packetBytes) ETV
attr interpolationmode none
attr recordingmode vector(packetBytes)
attr source packetSentToLower
attr title "packets transmitted, packetBytes"
vector 259 testfattree.Edge2.eth[2].mac rxPkOk:vector(packetBytes) ETV
attr interpolationmode none
attr recordingmode vector(packetBytes)
attr source rxPkOk
attr title "packets received OK, packetBytes"
vector 260 testfattree.Edge2.eth[2].mac passedUpPk:vector(packetBytes) ETV
attr interpolationmode none
attr recordingmode vector(packetBytes)
attr source packetSentToUpper
attr title "packets passed to higher layer, packetBytes"
vector 261 testfattree.Edge2.eth[0].Hiqueue.creditQueue incomingPacketLengths:vector ETV
attr interpolationmode none
attr recordingmode vector
attr source packetLength(packetPushStarted)
attr title "incoming packet lengths"
attr unit b
vector 262 testfattree.Edge2.eth[0].Hiqueue.creditQueue queueingTime:vector ETV
attr interpolationmode none
attr recordingmode vector
attr source queueingTime(packetPulled)
attr title "queueing times"
attr unit s
vector 263 testfattree.Edge2.eth[0].Hiqueue.creditQueue outgoingPacketLengths:vector ETV
attr interpolationmode none
attr recordingmode vector
attr source packetLength(packetPulled)
attr title "outgoing packet lengths"
attr unit b
vector 264 testfattree.Edge2.eth[0].Hiqueue.WrrScheduler "bufferOccupancy (byte)" ETV
vector 265 testfattree.Edge2.eth[0].Hiqueue.WrrScheduler packetLengths:vector ETV
attr interpolationmode none
attr recordingmode vector
attr source packetLength(packetPulled)
attr title "packet lengths"
attr unit b
vector 266 testfattree.Edge2.eth[0].Switchqueue incomingPacketLengths:vector ETV
attr interpolationmode none
attr recordingmode vector
attr source packetLength(packetPushStarted)
attr title "incoming packet lengths"
attr unit b
vector 267 testfattree.Edge2.eth[0].Switchqueue queueLength:vector ETV
attr autoWarmupFilter false
attr interpolationmode sample-hold
attr recordingmode vector
attr source "warmup(atomic(constant0(packetPushEnded) + count(packetPushStarted) - count(packetPulled) - count(packetRemoved) - count(packetDropped)))"
attr title "queue length"
attr unit pk
vector 268 testfattree.Edge2.eth[0].Switchqueue queueBitLength:vector ETV
attr autoWarmupFilter false
attr interpolationmode sample-hold
attr recordingmode vector
attr source "warmup(atomic(constant0(packetPushEnded) + sum(packetLength(packetPushStarted)) - sum(packetLength(packetPulled)) - sum(packetLength(packetRemoved)) - sum(packetLength(packetDropped))))"
attr title "queue bit length"
attr unit b
vector 269 testfattree.Edge2.eth[0].Switchqueue queueingTime:vector ETV
attr interpolationmode none
attr recordingmode vector
attr source queueingTime(packetPulled)
attr title "queueing times"
attr unit s
vector 270 testfattree.Edge2.eth[0].Switchqueue outgoingPacketLengths:vector ETV
attr interpolationmode none
attr recordingmode vector
attr source packetLength(packetPulled)
attr title "outgoing packet lengths"
attr unit b
vector 271 testfattree.Edge2.eth[0].mac packetReceivedFromUpper:vector(packetBytes) ETV
attr interpolationmode none
attr recordingmode vector(packetBytes)
attr source packetReceivedFromUpper
attr title "packet bytes from higher layer, packetBytes"
vector 272 testfattree.Edge2.eth[0].Hiqueue.creditQueue queueLength:vector ETV
attr autoWarmupFilter false
attr interpolationmode sample-hold
attr recordingmode vector
attr source "warmup(atomic(constant0(packetPushEnded) + count(packetPushStarted) - count(packetPulled) - count(packetRemoved) - count(packetDropped)))"
attr title "queue length"
attr unit pk
vector 273 testfattree.Edge2.eth[0].Hiqueue.creditQueue queueBitLength:vector ETV
attr autoWarmupFilter false
attr interpolationmode sample-hold
attr recordingmode vector
attr source "warmup(atomic(constant0(packetPushEnded) + sum(packetLength(packetPushStarted)) - sum(packetLength(packetPulled)) - sum(packetLength(packetRemoved)) - sum(packetLength(packetDropped))))"
attr title "queue bit length"
attr unit b
vector 274 testfattree.Edge2.eth[0].mac txPk:vector(packetBytes) ETV
attr interpolationmode none
attr recordingmode vector(packetBytes)
attr source packetSentToLower
attr title "packets transmitted, packetBytes"
vector 275 testfattree.Host3.eth[0].mac rxPkOk:vector(packetBytes) ETV
attr interpolationmode none
attr recordingmode vector(packetBytes)
attr source rxPkOk
attr title "packets received OK, packetBytes"
vector 276 testfattree.Host3.eth[0].mac passedUpPk:vector(packetBytes) ETV
attr interpolationmode none
attr recordingmode vector(packetBytes)
attr source packetSentToUpper
attr title "packets passed to higher layer, packetBytes"
vector 277 testfattree.Host3.ethernet decapPk:vector(packetBytes) ETV
attr interpolationmode none
attr recordingmode vector(packetBytes)
attr source decapPk
attr title "packets decapsulated, packetBytes"
0	69513 9 0 0 0 0 1 0 0 0 0
1	69522 9 0 0 0 0 1 0 0 0 0
2	69531 9 0 0 0 0 1 0 0 0 0
3	69540 9 0 0 0 0 1 0 0 0 0
4	69549 9 0 0 0 0 1 0 0 0 0
5	69558 9 0 0 0 0 1 0 0 0 0
6	69567 9 0 0 0 0 1 0 0 0 0
7	69576 9 0 0 0 0 1 0 0 0 0
8	69585 9 0 0 0 0 1 0 0 0 0
9	69594 9 0 0 0 0 1 0 0 0 0
10	69603 10 0 0 0 0 1 0 0 0 0
11	69613 10 0 0 0 0 1 0 0 0 0
12	69623 10 0 0 0 0 1 0 0 0 0
13	69633 10 0 0 0 0 1 0 0 0 0
14	69643 10 0 0 0 0 1 0 0 0 0
15	69653 10 0 0 0 0 1 0 0 0 0
16	69663 10 0 0 0 0 1 0 0 0 0
17	69673 10 0 0 0 0 1 0 0 0 0
18	69683 10 0 0 0 0 1 0 0 0 0
19	69693 10 0 0 0 0 1 0 0 0 0
20	69703 10 0 0 0 0 1 0 0 0 0
21	69713 10 0 0 0 0 1 0 0 0 0
22	69723 10 0 0 0 0 1 0 0 0 0
23	69733 10 0 0 0 0 1 0 0 0 0
24	69743 10 0 0 0 0 1 0 0 0 0
25	69753 10 0 0 0 0 1 0 0 0 0
26	69763 10 0 0 0 0 1 0 0 0 0
27	69773 10 0 0 0 0 1 0 0 0 0
28	69783 10 0 0 0 0 1 0 0 0 0
29	69793 10 0 0 0 0 1 0 0 0 0
30	69803 10 0 0 0 0 1 0 0 0 0
31	69813 10 0 0 0 0 1 0 0 0 0
32	69823 10 0 0 0 0 1 0 0 0 0
33	69833 10 0 0 0 0 1 0 0 0 0
34	69843 10 0 0 0 0 1 0 0 0 0
35	69853 10 0 0 0 0 1 0 0 0 0
36	69863 10 0 0 0 0 1 0 0 0 0
37	69873 10 0 0 0 0 1 0 0 0 0
38	69883 10 0 0 0 0 1 0 0 0 0
39	69893 10 0 0 0 0 1 0 0 0 0
40	69903 10 0 0 0 0 1 0 0 0 0
41	69913 10 0 0 0 0 1 0 0 0 0
42	69923 289 0 1206 0 0.000027264 13 0 12 78 650
43	70212 10 0 0 0 0 1 0 0 0 0
44	70222 10 0 0 0 0 1 0 0 0 0
45	70232 10 0 0 0 0 1 0 0 0 0
46	70242 10 0 0 0 0 1 0 0 0 0
47	70252 10 0 0 0 0 1 0 0 0 0
48	70262 77 18 203 0 0 5 59593 65527 321701 20726476565
49	70339 78 19 292 0 0 5 59601 65535 321741 20731624101
50	70417 1327 114 910 0 0.0000203648 88 46 1500 129125 193508357
51	71744 1415 204 911 0 0.0000203648 88 512 12144 1045672 12683863616
52	73159 752 204 1199 0 0.000027136 24 0 2.7136e-05 0.0003128368 5.7871317888e-09
53	73911 633 204 1199 0 0.000027136 24 512 12144 279824 3392227072
54	74544 609 204 1199 0 0.000027136 24 64 1518 34978 53003548
55	75153 1695 204 1199 0 0.000027136 111 0 86 5519 348383
56	76848 2142 204 1199 0 0.000027136 111 0 1033016 66738536 50866956949312
57	78990 594 294 1198 0.0000000576 0.0000271264 23 64 1518 33460 50699224
58	79584 568 296 1190 0.0000010576 0.000026896 22 64 1518 31942 48394900
59	80152 568 296 1190 0.0000010576 0.000026896 22 64 1518 31942 48394900
60	80720 592 297 1191 0.0000010576 0.000026896 23 46 1500 31600 47255032
61	81312 592 299 1193 0.0000010576 0.000026896 23 46 1500 31600 47255032
62	81904 23 301 301 0.0000010576 0.0000010576 1 0 0 0 0
63	81927 25 301 301 0.0000010576 0.0000010576 1 512 512 512 262144
64	81952 23 301 301 0.0000010576 0.0000010576 1 0 0 0 0
65	81975 25 301 301 0.0000010576 0.0000010576 1 512 512 512 262144
66	82000 504 301 1195 0.0000010576 0.000026896 22 0 0 0 0
67	82504 590 301 1195 0.0000010576 0.000026896 22 512 12144 255536 3097273600
68	83094 590 301 1195 0.0000010576 0.000026896 22 512 12144 255536 3097273600
69	83684 1008 301 1195 0.0000010576 0.000026896 44 0 1 22 22
70	84692 1094 301 1195 0.0000010576 0.000026896 44 0 12144 255536 3097273600
71	85786 504 301 1195 0.0000010576 0.000026896 22 0 0 0 0
72	86290 590 301 1195 0.0000010576 0.000026896 22 512 12144 255536 3097273600
73	86880 568 301 1195 0.0000010576 0.000026896 22 64 1518 31942 48394900
74	87448 568 302 1200 0.000001072 0.0000272012 22 64 1518 31942 48394900
75	88016 481 311 1195 0.000002288 0.000026896 21 0 0 0 0
76	88497 565 311 1195 0.000002288 0.000026896 21 12144 12144 255024 3097011456
77	89062 481 311 1195 0.000002288 0.000026896 21 0 0 0 0
78	89543 565 311 1195 0.000002288 0.000026896 21 12144 12144 255024 3097011456
79	90108 565 311 1195 0.000002288 0.000026896 21 12144 12144 255024 3097011456
80	90673 543 316 1230 0.000003072 0.0000279708 21 64 1518 30424 46090576
81	91216 543 316 1230 0.000003072 0.0000279708 21 64 1518 30424 46090576
82	91759 543 317 1231 0.000003072 0.0000279708 21 46 1500 30046 45002116
83	92302 543 319 1233 0.000003072 0.0000279708 21 46 1500 30046 45002116
84	92845 22 321 321 0.000003072 0.000003072 1 0 0 0 0
85	92867 24 321 321 0.000003072 0.000003072 1 512 512 512 262144
86	92891 22 321 321 0.000003072 0.000003072 1 0 0 0 0
87	92913 24 321 321 0.000003072 0.000003072 1 512 512 512 262144
88	92937 482 321 1235 0.000003072 0.0000279708 21 0 0 0 0
89	93419 564 321 1235 0.000003072 0.0000279708 21 512 12144 243392 2949796864
90	93983 564 321 1235 0.000003072 0.0000279708 21 512 12144 243392 2949796864
91	94547 964 321 1235 0.000003072 0.0000279708 42 0 1 21 21
92	95511 1046 321 1235 0.000003072 0.0000279708 42 0 12144 243392 2949796864
93	96557 482 321 1235 0.000003072 0.0000279708 21 0 0 0 0
94	97039 564 321 1235 0.000003072 0.0000279708 21 512 12144 243392 2949796864
95	97603 543 321 1235 0.000003072 0.0000279708 21 64 1518 30424 46090576
96	98146 518 322 1196 0.0000030864 0.0000270456 20 64 1518 28906 43786252
97	98664 460 339 1235 0.0000045932 0.0000279708 20 0 0 0 0
98	99124 540 339 1235 0.0000045932 0.0000279708 20 12144 12144 242880 2949534720
99	99664 460 339 1235 0.0000045932 0.0000279708 20 0 0 0 0
100	100124 560 339 1235 0.0000045932 0.0000279708 20 12144 12144 242880 2949534720
101	100684 560 339 1235 0.0000045932 0.0000279708 20 12144 12144 242880 2949534720
102	101244 512 352 1222 0.0000050864 0.0000278152 19 64 1518 27388 41481928
103	101756 512 352 1222 0.0000050864 0.0000278152 19 64 1518 27388 41481928
104	102268 512 353 1223 0.0000050864 0.0000278152 19 46 1500 27046 40502116
105	102780 512 355 1225 0.0000050864 0.0000278152 19 46 1500 27046 40502116
106	103292 24 357 357 0.0000050864 0.0000050864 1 0 0 0 0
107	103316 26 357 357 0.0000050864 0.0000050864 1 512 512 512 262144
108	103342 24 357 357 0.0000050864 0.0000050864 1 0 0 0 0
109	103366 26 357 357 0.0000050864 0.0000050864 1 512 512 512 262144
110	103392 457 357 1227 0.0000050864 0.0000278152 19 0 0 0 0
111	103849 531 357 1227 0.0000050864 0.0000278152 19 512 12144 219104 2654843392
112	104380 531 357 1227 0.0000050864 0.0000278152 19 512 12144 219104 2654843392
113	104911 914 357 1227 0.0000050864 0.0000278152 38 0 1 19 19
114	105825 988 357 1227 0.0000050864 0.0000278152 38 0 12144 219104 2654843392
115	106813 457 357 1227 0.0000050864 0.0000278152 19 0 0 0 0
116	107270 531 357 1227 0.0000050864 0.0000278152 19 512 12144 219104 2654843392
117	107801 512 357 1227 0.0000050864 0.0000278152 19 64 1518 27388 41481928
118	108313 483 358 1188 0.0000051008 0.00002689 18 64 1518 25870 39177604
119	108796 433 383 1227 0.0000068984 0.0000278152 18 0 0 0 0
120	109229 505 383 1227 0.0000068984 0.0000278152 18 12144 12144 218592 2654581248
121	109734 433 383 1227 0.0000068984 0.0000278152 18 0 0 0 0
122	110167 505 383 1227 0.0000068984 0.0000278152 18 12144 12144 218592 2654581248
123	110672 505 383 1227 0.0000068984 0.0000278152 18 12144 12144 218592 2654581248
124	111177 459 390 1216 0.0000071008 0.0000276596 17 64 1518 24352 36873280
125	111636 459 390 1216 0.0000071008 0.0000276596 17 64 1518 24352 36873280
126	112095 459 391 1217 0.0000071008 0.0000276596 17 46 1500 24046 36002116
127	112554 459 393 1219 0.0000071008 0.0000276596 17 46 1500 24046 36002116
128	113013 24 395 395 0.0000071008 0.0000071008 1 0 0 0 0
129	113037 26 395 395 0.0000071008 0.0000071008 1 512 512 512 262144
130	113063 24 395 395 0.0000071008 0.0000071008 1 0 0 0 0
131	113087 26 395 395 0.0000071008 0.0000071008 1 512 512 512 262144
132	113113 410 395 1221 0.0000071008 0.0000276596 17 0 0 0 0
133	113523 476 395 1221 0.0000071008 0.0000276596 17 512 12144 194816 2359889920
134	113999 476 395 1221 0.0000071008 0.0000276596 17 512 12144 194816 2359889920
135	114475 820 395 1221 0.0000071008 0.0000276596 34 0 1 17 17
136	115295 886 395 1221 0.0000071008 0.0000276596 34 0 12144 194816 2359889920
137	116181 410 395 1221 0.0000071008 0.0000276596 17 0 0 0 0
138	116591 476 395 1221 0.0000071008 0.0000276596 17 512 12144 194816 2359889920
139	117067 459 395 1221 0.0000071008 0.0000276596 17 64 1518 24352 36873280
140	117526 457 396 1228 0.0000071152 0.0000279648 17 64 1518 24352 36873280
141	117983 402 438 1209 0.0000091152 0.000027504 15 64 1518 21316 32264632
142	118385 402 438 1209 0.0000091152 0.000027504 15 64 1518 21316 32264632
143	118787 453 439 1211 0.0000091152 0.000027504 17 46 1500 21152 31507736
144	119240 453 441 1213 0.0000091152 0.000027504 17 46 1500 21152 31507736
145	119693 24 443 443 0.0000091152 0.0000091152 1 0 0 0 0
146	119717 26 443 443 0.0000091152 0.0000091152 1 512 512 512 262144
147	119743 24 443 443 0.0000091152 0.0000091152 1 0 0 0 0
148	119767 26 443 443 0.0000091152 0.0000091152 1 512 512 512 262144
149	119793 360 443 1215 0.0000091152 0.000027504 15 0 0 0 0
150	120153 418 443 1215 0.0000091152 0.000027504 15 512 12144 170528 2064936448
151	120571 418 443 1215 0.0000091152 0.000027504 15 512 12144 170528 2064936448
152	120989 720 443 1215 0.0000091152 0.000027504 30 0 1 15 15
153	121709 778 443 1215 0.0000091152 0.000027504 30 0 12144 170528 2064936448
154	122487 360 443 1215 0.0000091152 0.000027504 15 0 0 0 0
155	122847 418 443 1215 0.0000091152 0.000027504 15 512 12144 170528 2064936448
156	123265 403 443 1215 0.0000091152 0.000027504 15 64 1518 21316 32264632
157	123668 376 444 1208 0.0000091728 0.0000274944 14 64 1518 19798 29960308
158	124044 386 451 1221 0.0000092036 0.0000276596 16 0 0 0 0
159	124430 450 451 1221 0.0000092036 0.0000276596 16 12144 12144 194304 2359627776
160	124880 386 451 1221 0.0000092036 0.0000276596 16 0 0 0 0
161	125266 450 451 1221 0.0000092036 0.0000276596 16 12144 12144 194304 2359627776
162	125716 450 451 1221 0.0000092036 0.0000276596 16 12144 12144 194304 2359627776
163	126166 349 480 1202 0.0000101728 0.000027264 13 64 1518 18280 27655984
164	126515 349 480 1202 0.0000101728 0.000027264 13 64 1518 18280 27655984
165	126864 349 481 1203 0.0000101728 0.000027264 13 46 1500 18046 27002116
166	127213 51 485 1024 0.0000101728 0.0000230688 2 52 54 106 5620
167	127264 53 486 1025 0.0000101728 0.0000230688 2 560 576 1136 645376
168	127317 49 486 1025 0.0000101728 0.0000230688 2 0 0 0 0
169	127366 53 486 1025 0.0000101728 0.0000230688 2 560 576 1136 645376
170	127419 51 486 1025 0.0000101728 0.0000230688 2 70 72 142 10084
171	127470 49 486 1025 0.0000101728 0.0000230688 2 0 0 0 0
172	127519 49 486 1025 0.0000101728 0.0000230688 2 0 0 0 0
173	127568 51 487 1026 0.0000102368 0.0000231312 2 70 72 142 10084
174	127619 51 523 1068 0.0000112368 0.0000241312 2 70 72 142 10084
175	127670 51 523 1068 0.0000112368 0.0000241312 2 70 72 142 10084
176	127721 53 528 1073 0.0000112368 0.0000241312 2 560 576 1136 645376
177	127774 49 528 1073 0.0000112368 0.0000241312 2 0 0 0 0
178	127823 53 528 1073 0.0000112368 0.0000241312 2 560 576 1136 645376
179	127876 49 528 1073 0.0000112368 0.0000241312 2 0 0 0 0
180	127925 53 528 1073 0.0000112368 0.0000241312 2 560 576 1136 645376
181	127978 53 528 1073 0.0000112368 0.0000241312 2 560 576 1136 645376
182	128031 98 528 1073 0.0000112368 0.0000241312 4 0 1 2 2
183	128129 102 528 1073 0.0000112368 0.0000241312 4 0 576 1136 645376
184	128231 49 528 1073 0.0000112368 0.0000241312 2 0 0 0 0
185	128280 53 528 1073 0.0000112368 0.0000241312 2 560 576 1136 645376
186	128333 51 528 1073 0.0000112368 0.0000241312 2 70 72 142 10084
187	128384 49 528 1073 0.0000112368 0.0000241312 2 0 0 0 0
188	128433 49 528 1073 0.0000112368 0.0000241312 2 0 0 0 0
189	128482 51 529 1074 0.0000112528 0.0000241468 2 70 72 142 10084
190	128533 336 536 1215 0.0000115088 0.000027504 14 0 0 0 0
191	128869 392 536 1215 0.0000115088 0.000027504 14 12144 12144 170016 2064674304
192	129261 336 536 1215 0.0000115088 0.000027504 14 0 0 0 0
193	129597 392 536 1215 0.0000115088 0.000027504 14 12144 12144 170016 2064674304
194	129989 392 536 1215 0.0000115088 0.000027504 14 12144 12144 170016 2064674304
195	130381 51 599 1152 0.0000132528 0.0000261468 2 70 72 142 10084
196	130432 51 599 1152 0.0000132528 0.0000261468 2 70 72 142 10084
197	130483 51 600 1153 0.0000132528 0.0000261468 2 52 54 106 5620
198	130534 51 602 1155 0.0000132528 0.0000261468 2 52 54 106 5620
199	130585 53 604 1157 0.0000132528 0.0000261468 2 560 576 1136 645376
200	130638 49 604 1157 0.0000132528 0.0000261468 2 0 0 0 0
201	130687 53 604 1157 0.0000132528 0.0000261468 2 560 576 1136 645376
202	130740 49 604 1157 0.0000132528 0.0000261468 2 0 0 0 0
203	130789 53 604 1157 0.0000132528 0.0000261468 2 560 576 1136 645376
204	130842 53 604 1157 0.0000132528 0.0000261468 2 560 576 1136 645376
205	130895 98 604 1157 0.0000132528 0.0000261468 4 0 1 2 2
206	130993 102 604 1157 0.0000132528 0.0000261468 4 0 576 1136 645376
207	131095 49 604 1157 0.0000132528 0.0000261468 2 0 0 0 0
208	131144 53 604 1157 0.0000132528 0.0000261468 2 560 576 1136 645376
209	131197 51 604 1157 0.0000132528 0.0000261468 2 70 72 142 10084
210	131248 49 604 1157 0.0000132528 0.0000261468 2 0 0 0 0
211	131297 49 604 1157 0.0000132528 0.0000261468 2 0 0 0 0
212	131346 51 605 1158 0.0000132688 0.0000261624 2 70 72 142 10084
213	131397 288 624 1205 0.0000137296 0.000027264 12 1 1 12 12
214	131685 404 624 1205 0.0000137296 0.000027264 12 1.37296e-05 2.7264e-05 0.0002459616 5.25791115776e-09
215	132089 459 624 1205 0.0000137296 0.000027264 12 0.86731025512354 1.2070012362983 12.34625177682 12.839008809828
216	132548 398 624 1205 0.0000137296 0.000027264 12 2.3052e-06 1.58224e-05 0.0001086796 1.2005242024e-09
217	132946 336 624 1205 0.0000137296 0.000027264 12 1e-05 1e-05 0.00012 1.2e-09
218	133282 288 624 1205 0.0000137296 0.000027264 12 0 0 0 0
219	133570 288 624 1205 0.0000137296 0.000027264 12 0 0 0 0
220	133858 372 624 1205 0.0000137296 0.000027264 12 50000000 50000000 600000000 3e+16
221	134230 324 625 1206 0.0000137296 0.000027264 12 1478 1478 17736 26213808
222	134554 456 626 1207 0.0000137296 0.000027264 12 856543526.39552 9557867360.2081 105993084488.68 1.0056147800412e+21
223	135010 25 683 683 0.0000152688 0.0000152688 1 72 72 72 5184
224	135035 25 683 683 0.0000152688 0.0000152688 1 72 72 72 5184
225	135060 25 684 684 0.0000152688 0.0000152688 1 54 54 54 2916
226	135085 25 686 686 0.0000152688 0.0000152688 1 54 54 54 2916
227	135110 26 688 688 0.0000152688 0.0000152688 1 576 576 576 331776
228	135136 24 688 688 0.0000152688 0.0000152688 1 0 0 0 0
229	135160 26 688 688 0.0000152688 0.0000152688 1 576 576 576 331776
230	135186 24 688 688 0.0000152688 0.0000152688 1 0 0 0 0
231	135210 26 688 688 0.0000152688 0.0000152688 1 576 576 576 331776
232	135236 26 688 688 0.0000152688 0.0000152688 1 576 576 576 331776
233	135262 48 688 688 0.0000152688 0.0000152688 2 0 1 1 1
234	135310 50 688 688 0.0000152688 0.0000152688 2 0 576 576 331776
235	135360 24 688 688 0.0000152688 0.0000152688 1 0 0 0 0
236	135384 26 688 688 0.0000152688 0.0000152688 1 576 576 576 331776
237	135410 25 688 688 0.0000152688 0.0000152688 1 72 72 72 5184
238	135435 24 688 688 0.0000152688 0.0000152688 1 0 0 0 0
239	135459 24 688 688 0.0000152688 0.0000152688 1 0 0 0 0
240	135483 25 689 689 0.0000152848 0.0000152848 1 72 72 72 5184
241	135508 25 770 770 0.0000172848 0.0000172848 1 72 72 72 5184
242	135533 25 770 770 0.0000172848 0.0000172848 1 72 72 72 5184
243	135558 25 771 771 0.0000172848 0.0000172848 1 54 54 54 2916
244	135583 25 773 773 0.0000172848 0.0000172848 1 54 54 54 2916
245	135608 26 775 775 0.0000172848 0.0000172848 1 576 576 576 331776
246	135634 24 775 775 0.0000172848 0.0000172848 1 0 0 0 0
247	135658 26 775 775 0.0000172848 0.0000172848 1 576 576 576 331776
248	135684 24 775 775 0.0000172848 0.0000172848 1 0 0 0 0
249	135708 26 775 775 0.0000172848 0.0000172848 1 576 576 576 331776
250	135734 26 775 775 0.0000172848 0.0000172848 1 576 576 576 331776
251	135760 48 775 775 0.0000172848 0.0000172848 2 0 1 1 1
252	135808 50 775 775 0.0000172848 0.0000172848 2 0 576 576 331776
253	135858 24 775 775 0.0000172848 0.0000172848 1 0 0 0 0
254	135882 26 775 775 0.0000172848 0.0000172848 1 576 576 576 331776
255	135908 25 775 775 0.0000172848 0.0000172848 1 72 72 72 5184
256	135933 24 775 775 0.0000172848 0.0000172848 1 0 0 0 0
257	135957 24 775 775 0.0000172848 0.0000172848 1 0 0 0 0
258	135981 25 777 777 0.0000173008 0.0000173008 1 72 72 72 5184
259	136006 25 855 855 0.0000193008 0.0000193008 1 72 72 72 5184
260	136031 25 855 855 0.0000193008 0.0000193008 1 72 72 72 5184
261	136056 26 860 860 0.0000193008 0.0000193008 1 576 576 576 331776
262	136082 24 860 860 0.0000193008 0.0000193008 1 0 0 0 0
263	136106 26 860 860 0.0000193008 0.0000193008 1 576 576 576 331776
264	136132 24 860 860 0.0000193008 0.0000193008 1 0 0 0 0
265	136156 26 860 860 0.0000193008 0.0000193008 1 576 576 576 331776
266	136182 26 860 860 0.0000193008 0.0000193008 1 576 576 576 331776
267	136208 48 860 860 0.0000193008 0.0000193008 2 0 1 1 1
268	136256 50 860 860 0.0000193008 0.0000193008 2 0 576 576 331776
269	136306 24 860 860 0.0000193008 0.0000193008 1 0 0 0 0
270	136330 26 860 860 0.0000193008 0.0000193008 1 576 576 576 331776
271	136356 25 860 860 0.0000193008 0.0000193008 1 72 72 72 5184
272	136381 24 860 860 0.0000193008 0.0000193008 1 0 0 0 0
273	136405 24 860 860 0.0000193008 0.0000193008 1 0 0 0 0
274	136429 25 869 869 0.0000193648 0.0000193648 1 72 72 72 5184
275	136454 25 905 905 0.0000203648 0.0000203648 1 72 72 72 5184
276	136479 25 905 905 0.0000203648 0.0000203648 1 72 72 72 5184
277	136504 25 906 906 0.0000203648 0.0000203648 1 54 54 54 2916

