version 3
run General-0-20230730-22:32:12-18568
attr configname General
attr datetime 20230730-22:32:12
attr datetimef 20230730-223212
attr experiment General
attr inifile testfattree.ini
attr iterationvars "$k=1e-5, $p=8e-5, $m=0.25"
attr iterationvarsd k=1e-5/p=8e-5/m=0.25
attr iterationvarsf k=1e-5,p=8e-5,m=0.25-
attr measurement "$k=1e-5, $p=8e-5, $m=0.25"
attr network testfattree
attr processid 18568
attr repetition 0
attr replication #0
attr resultdir results
attr runnumber 0
attr seedset 0
itervar k 1e-5
itervar m 0.25
itervar p 8e-5
config image-path ../../../../images
config network testfattree
config sim-time-limit 110s
config **.*.vector-recording true
config **.arp.typename GlobalArp
config **.arp.retryTimeout 1s
config **.arp.retryCount 3
config **.arp.cacheTimeout 100s
config **.configurator.ecmp true
config **.*.ipv4.routingTable.flowlevel true
config **.Core*.ipv4.ip.useEcmp true
config **.Agre*.ipv4.ip.useEcmp true
config **.Edge*.ipv4.ip.useEcmp true
config **.*.mac.maxInterval 100us
config **.*.mac.batchSize 50
config **.*.Hiqueue.*.sharedBuffer 9MB
config **.*.Hiqueue.*.alpha 1
config **.*.Hiqueue.*.useEcn true
config **.*.Hiqueue.*.Kmax 200000B
config **.*.Hiqueue.*.Kmin 5000B
config **.*.Hiqueue.*.Pmax 0
config **.*.Hiqueue.*.usePfc true
config **.*.Hiqueue.*.XOFF 300000B
config **.*.Hiqueue.*.XON 297000B
config **.*.Hiqueue.*.headroom 21520b
config **.Core*.eth[*].*.creditQueue.limrate 2Gbps
config **.Agre*.eth[*].*.creditQueue.limrate 2Gbps
config **.Edge*.eth[12].*.creditQueue.limrate 2Gbps
config **.Edge*.eth[0..11].*.creditQueue.limrate 0.5Gbps
config **.Host*.numApps 1
config **.Host3.app[0].typename HiUdpApp
config **.Host3.app[0].trafficMode "\"WebSearch\""
config **.Host3.app[0].Enablepoisson true
config **.Host3.app[0].workLoad 1
config **.Host3.app[0].linkSpeed 10Gbps
config **.Host3.app[0].AppPriority 1
config **.Host3.app[0].packetName default
config **.Host3.app[0].connectAddresses "\"Host15\""
config **.Host4.app[0].typename HiUdpApp
config **.Host4.app[0].trafficMode "\"WebSearch\""
config **.Host4.app[0].Enablepoisson true
config **.Host4.app[0].workLoad 1
config **.Host4.app[0].linkSpeed 10Gbps
config **.Host4.app[0].AppPriority 1
config **.Host4.app[0].packetName default
config **.Host4.app[0].connectAddresses "\"Host15\""
config **.Host15.app[0].typename HiUdpApp
config **.Host1.app[0].connectAddresses "\"Host2\""
config **.Host*.app[0].typename TcpApp
config **.Host*.app[0].connectAddresses "\"Host13\""
config **.Host1.app[0].localAddress "\"Host1\""
config **.Host2.app[0].localAddress "\"Host2\""
config **.Host3.app[0].localAddress "\"Host3\""
config **.Host4.app[0].localAddress "\"Host4\""
config **.Host5.app[0].localAddress "\"Host5\""
config **.Host6.app[0].localAddress "\"Host6\""
config **.Host7.app[0].localAddress "\"Host7\""
config **.Host8.app[0].localAddress "\"Host8\""
config **.Host9.app[0].localAddress "\"Host9\""
config **.Host10.app[0].localAddress "\"Host10\""
config **.Host11.app[0].localAddress "\"Host11\""
config **.Host12.app[0].localAddress "\"Host12\""
config **.Host13.app[0].localAddress "\"Host13\""
config **.Host14.app[0].localAddress "\"Host14\""
config **.Host15.app[0].localAddress "\"Host15\""
config **.Host16.app[0].localAddress "\"Host16\""
config **.Host3.app[0].startTime 0s
config **.Host3.app[0].stopTime 1s
config **.Host4.app[0].startTime -1s
config **.Host4.app[0].stopTime 1s
config **.Host1.app[0].tOpen -1s
config **.Host1.app[0].tSend 0s
config **.Host1.app[0].tClose 10s
config **.Host3.UdpCC.typename CoRe
config **.Host15.UdpCC.typename CoRe
config **.Host3.UdpCC.linkspeed 10Gbps
config **.Host*.UdpCC.activate true
config **.Host*.UdpCC.baseRTT 100us
config **.Host3.UdpCC.expectedFlows 1
config **.Core*.eth[*].mac.HPCC true
config **.Agre*.eth[*].mac.HPCC true
config **.Edge*.eth[*].mac.HPCC true
config **.Host*.UdpCC.PARA_K 1e-5
config **.Host*.UdpCC.PARA_P 8e-5
config **.Host*.UdpCC.m 0.25
config **.Core*.eth[*].mac.CoRe true
config **.Agre*.eth[*].mac.CoRe true
config **.Edge*.eth[*].mac.CoRe true
config **.Core*.eth[*].*.*.S_drop 8kB
config **.Agre*.eth[*].*.*.S_drop 8kB
config **.Edge*.eth[*].*.*.S_drop 8kB
config **.Host3.UdpCC.min_cnp_interval 55us
config **.Host3.UdpCC.AlphaTimer_th 25us
config **.Host3.UdpCC.RateTimer_th 55us
config **.Host3.UdpCC.ByteCounter_th 10MiB
config **.Host3.UdpCC.gamma 1/256
config **.Host3.UdpCC.Rai 40Mbps
config **.Host3.UdpCC.Rhai 100Mbps
config **.Host2.UdpCC.typename DCQCN
config **.Host2.UdpCC.linkspeed 1Gbps
config **.Host2.UdpCC.min_cnp_interval 55us
config **.Host2.UdpCC.AlphaTimer_th 25us
config **.Host2.UdpCC.RateTimer_th 55us
config **.Host2.UdpCC.ByteCounter_th 10MiB
config **.Host2.UdpCC.gamma 1/256
config **.Host2.UdpCC.Rai 40Mbps
config **.Host2.UdpCC.Rhai 100Mbps
config **.Host2.app[0].typename TcpApp
config **.Host2.app[0].startTime -1s
config **.Host2.app[0].stopTime 1s
config **.Host14.UdpCC.typename XPASS
config **.Host14.UdpCC.linkspeed 1Gbps
config **.Host14.UdpCC.initialrate 1/16
config **.Host14.UdpCC.wmax 0.03
config **.Host14.UdpCC.wmin 0.01
config **.Host14.UdpCC.targetratio 0.1
config **.tcp.tcpAlgorithmClass "\"DcTcp\""
config **.tcp.mss 1460
config **.tcp.ecnWillingness true
config **.tcp.nagleEnabled false
config **.tcp.limitedTransmitEnabled false
config **.tcp.sackSupport false
config **.tcp.timestampSupport false
config **.tcp.delayedAcksEnabled true
config **.tcp.recordStat true
config **.tcp.advertisedWindow 6250
config **.tcp.dctcpGamma 0.0625

vector 0 testfattree.Host1.udp passedUpPk:vector(count) ETV
attr interpolationmode none
attr recordingmode vector(count)
attr source packetSentToUpper
attr title "packets passed up, count"
vector 1 testfattree.Host1.udp droppedPkWrongPort:vector(count) ETV
attr interpolationmode none
attr recordingmode vector(count)
attr source packetDropReasonIsNoPortFound(packetDropped)
attr title "packets dropped (wrong port), count"
vector 2 testfattree.Host1.udp droppedPkBadChecksum:vector(count) ETV
attr interpolationmode none
attr recordingmode vector(count)
attr source packetDropReasonIsIncorrectlyReceived(packetDropped)
attr title "packets dropped (checksum error), count"
vector 3 testfattree.Host2.udp passedUpPk:vector(count) ETV
attr interpolationmode none
attr recordingmode vector(count)
attr source packetSentToUpper
attr title "packets passed up, count"
vector 4 testfattree.Host2.udp droppedPkWrongPort:vector(count) ETV
attr interpolationmode none
attr recordingmode vector(count)
attr source packetDropReasonIsNoPortFound(packetDropped)
attr title "packets dropped (wrong port), count"
vector 5 testfattree.Host2.udp droppedPkBadChecksum:vector(count) ETV
attr interpolationmode none
attr recordingmode vector(count)
attr source packetDropReasonIsIncorrectlyReceived(packetDropped)
attr title "packets dropped (checksum error), count"
vector 6 testfattree.Host3.udp passedUpPk:vector(count) ETV
attr interpolationmode none
attr recordingmode vector(count)
attr source packetSentToUpper
attr title "packets passed up, count"
vector 7 testfattree.Host3.udp droppedPkWrongPort:vector(count) ETV
attr interpolationmode none
attr recordingmode vector(count)
attr source packetDropReasonIsNoPortFound(packetDropped)
attr title "packets dropped (wrong port), count"
vector 8 testfattree.Host3.udp droppedPkBadChecksum:vector(count) ETV
attr interpolationmode none
attr recordingmode vector(count)
attr source packetDropReasonIsIncorrectlyReceived(packetDropped)
attr title "packets dropped (checksum error), count"
vector 9 testfattree.Host4.udp passedUpPk:vector(count) ETV
attr interpolationmode none
attr recordingmode vector(count)
attr source packetSentToUpper
attr title "packets passed up, count"
vector 10 testfattree.Host4.udp droppedPkWrongPort:vector(count) ETV
attr interpolationmode none
attr recordingmode vector(count)
attr source packetDropReasonIsNoPortFound(packetDropped)
attr title "packets dropped (wrong port), count"
vector 11 testfattree.Host4.udp droppedPkBadChecksum:vector(count) ETV
attr interpolationmode none
attr recordingmode vector(count)
attr source packetDropReasonIsIncorrectlyReceived(packetDropped)
attr title "packets dropped (checksum error), count"
vector 12 testfattree.Host5.udp passedUpPk:vector(count) ETV
attr interpolationmode none
attr recordingmode vector(count)
attr source packetSentToUpper
attr title "packets passed up, count"
vector 13 testfattree.Host5.udp droppedPkWrongPort:vector(count) ETV
attr interpolationmode none
attr recordingmode vector(count)
attr source packetDropReasonIsNoPortFound(packetDropped)
attr title "packets dropped (wrong port), count"
vector 14 testfattree.Host5.udp droppedPkBadChecksum:vector(count) ETV
attr interpolationmode none
attr recordingmode vector(count)
attr source packetDropReasonIsIncorrectlyReceived(packetDropped)
attr title "packets dropped (checksum error), count"
vector 15 testfattree.Host6.udp passedUpPk:vector(count) ETV
attr interpolationmode none
attr recordingmode vector(count)
attr source packetSentToUpper
attr title "packets passed up, count"
vector 16 testfattree.Host6.udp droppedPkWrongPort:vector(count) ETV
attr interpolationmode none
attr recordingmode vector(count)
attr source packetDropReasonIsNoPortFound(packetDropped)
attr title "packets dropped (wrong port), count"
vector 17 testfattree.Host6.udp droppedPkBadChecksum:vector(count) ETV
attr interpolationmode none
attr recordingmode vector(count)
attr source packetDropReasonIsIncorrectlyReceived(packetDropped)
attr title "packets dropped (checksum error), count"
vector 18 testfattree.Host7.udp passedUpPk:vector(count) ETV
attr interpolationmode none
attr recordingmode vector(count)
attr source packetSentToUpper
attr title "packets passed up, count"
vector 19 testfattree.Host7.udp droppedPkWrongPort:vector(count) ETV
attr interpolationmode none
attr recordingmode vector(count)
attr source packetDropReasonIsNoPortFound(packetDropped)
attr title "packets dropped (wrong port), count"
vector 20 testfattree.Host7.udp droppedPkBadChecksum:vector(count) ETV
attr interpolationmode none
attr recordingmode vector(count)
attr source packetDropReasonIsIncorrectlyReceived(packetDropped)
attr title "packets dropped (checksum error), count"
vector 21 testfattree.Host8.udp passedUpPk:vector(count) ETV
attr interpolationmode none
attr recordingmode vector(count)
attr source packetSentToUpper
attr title "packets passed up, count"
vector 22 testfattree.Host8.udp droppedPkWrongPort:vector(count) ETV
attr interpolationmode none
attr recordingmode vector(count)
attr source packetDropReasonIsNoPortFound(packetDropped)
attr title "packets dropped (wrong port), count"
vector 23 testfattree.Host8.udp droppedPkBadChecksum:vector(count) ETV
attr interpolationmode none
attr recordingmode vector(count)
attr source packetDropReasonIsIncorrectlyReceived(packetDropped)
attr title "packets dropped (checksum error), count"
vector 24 testfattree.Host9.udp passedUpPk:vector(count) ETV
attr interpolationmode none
attr recordingmode vector(count)
attr source packetSentToUpper
attr title "packets passed up, count"
vector 25 testfattree.Host9.udp droppedPkWrongPort:vector(count) ETV
attr interpolationmode none
attr recordingmode vector(count)
attr source packetDropReasonIsNoPortFound(packetDropped)
attr title "packets dropped (wrong port), count"
vector 26 testfattree.Host9.udp droppedPkBadChecksum:vector(count) ETV
attr interpolationmode none
attr recordingmode vector(count)
attr source packetDropReasonIsIncorrectlyReceived(packetDropped)
attr title "packets dropped (checksum error), count"
vector 27 testfattree.Host10.udp passedUpPk:vector(count) ETV
attr interpolationmode none
attr recordingmode vector(count)
attr source packetSentToUpper
attr title "packets passed up, count"
vector 28 testfattree.Host10.udp droppedPkWrongPort:vector(count) ETV
attr interpolationmode none
attr recordingmode vector(count)
attr source packetDropReasonIsNoPortFound(packetDropped)
attr title "packets dropped (wrong port), count"
vector 29 testfattree.Host10.udp droppedPkBadChecksum:vector(count) ETV
attr interpolationmode none
attr recordingmode vector(count)
attr source packetDropReasonIsIncorrectlyReceived(packetDropped)
attr title "packets dropped (checksum error), count"
vector 30 testfattree.Host11.udp passedUpPk:vector(count) ETV
attr interpolationmode none
attr recordingmode vector(count)
attr source packetSentToUpper
attr title "packets passed up, count"
vector 31 testfattree.Host11.udp droppedPkWrongPort:vector(count) ETV
attr interpolationmode none
attr recordingmode vector(count)
attr source packetDropReasonIsNoPortFound(packetDropped)
attr title "packets dropped (wrong port), count"
vector 32 testfattree.Host11.udp droppedPkBadChecksum:vector(count) ETV
attr interpolationmode none
attr recordingmode vector(count)
attr source packetDropReasonIsIncorrectlyReceived(packetDropped)
attr title "packets dropped (checksum error), count"
vector 33 testfattree.Host12.udp passedUpPk:vector(count) ETV
attr interpolationmode none
attr recordingmode vector(count)
attr source packetSentToUpper
attr title "packets passed up, count"
vector 34 testfattree.Host12.udp droppedPkWrongPort:vector(count) ETV
attr interpolationmode none
attr recordingmode vector(count)
attr source packetDropReasonIsNoPortFound(packetDropped)
attr title "packets dropped (wrong port), count"
vector 35 testfattree.Host12.udp droppedPkBadChecksum:vector(count) ETV
attr interpolationmode none
attr recordingmode vector(count)
attr source packetDropReasonIsIncorrectlyReceived(packetDropped)
attr title "packets dropped (checksum error), count"
vector 36 testfattree.Host13.udp passedUpPk:vector(count) ETV
attr interpolationmode none
attr recordingmode vector(count)
attr source packetSentToUpper
attr title "packets passed up, count"
vector 37 testfattree.Host13.udp droppedPkWrongPort:vector(count) ETV
attr interpolationmode none
attr recordingmode vector(count)
attr source packetDropReasonIsNoPortFound(packetDropped)
attr title "packets dropped (wrong port), count"
vector 38 testfattree.Host13.udp droppedPkBadChecksum:vector(count) ETV
attr interpolationmode none
attr recordingmode vector(count)
attr source packetDropReasonIsIncorrectlyReceived(packetDropped)
attr title "packets dropped (checksum error), count"
vector 39 testfattree.Host14.udp passedUpPk:vector(count) ETV
attr interpolationmode none
attr recordingmode vector(count)
attr source packetSentToUpper
attr title "packets passed up, count"
vector 40 testfattree.Host14.udp droppedPkWrongPort:vector(count) ETV
attr interpolationmode none
attr recordingmode vector(count)
attr source packetDropReasonIsNoPortFound(packetDropped)
attr title "packets dropped (wrong port), count"
vector 41 testfattree.Host14.udp droppedPkBadChecksum:vector(count) ETV
attr interpolationmode none
attr recordingmode vector(count)
attr source packetDropReasonIsIncorrectlyReceived(packetDropped)
attr title "packets dropped (checksum error), count"
vector 42 testfattree.Host15.udp passedUpPk:vector(count) ETV
attr interpolationmode none
attr recordingmode vector(count)
attr source packetSentToUpper
attr title "packets passed up, count"
vector 43 testfattree.Host15.udp droppedPkWrongPort:vector(count) ETV
attr interpolationmode none
attr recordingmode vector(count)
attr source packetDropReasonIsNoPortFound(packetDropped)
attr title "packets dropped (wrong port), count"
vector 44 testfattree.Host15.udp droppedPkBadChecksum:vector(count) ETV
attr interpolationmode none
attr recordingmode vector(count)
attr source packetDropReasonIsIncorrectlyReceived(packetDropped)
attr title "packets dropped (checksum error), count"
vector 45 testfattree.Host16.udp passedUpPk:vector(count) ETV
attr interpolationmode none
attr recordingmode vector(count)
attr source packetSentToUpper
attr title "packets passed up, count"
vector 46 testfattree.Host16.udp droppedPkWrongPort:vector(count) ETV
attr interpolationmode none
attr recordingmode vector(count)
attr source packetDropReasonIsNoPortFound(packetDropped)
attr title "packets dropped (wrong port), count"
vector 47 testfattree.Host16.udp droppedPkBadChecksum:vector(count) ETV
attr interpolationmode none
attr recordingmode vector(count)
attr source packetDropReasonIsIncorrectlyReceived(packetDropped)
attr title "packets dropped (checksum error), count"
vector 48 testfattree.Host3.app[0] packetSent:vector(packetBytes) ETV
attr interpolationmode none
attr recordingmode vector(packetBytes)
attr source packetSent
attr title "packets sent, packetBytes"
vector 49 testfattree.Host3.udp packetSent:vector(packetBytes) ETV
attr interpolationmode none
attr recordingmode vector(packetBytes)
attr source packetSent
attr title "packets sent, packetBytes"
vector 50 testfattree.Host3.ethernet encapPk:vector(packetBytes) ETV
attr interpolationmode none
attr recordingmode vector(packetBytes)
attr source encapPk
attr title "packets encapsulated, packetBytes"
vector 51 testfattree.Host3.eth[0].Hostqueue incomingPacketLengths:vector ETV
attr interpolationmode none
attr recordingmode vector
attr source packetLength(packetPushStarted)
attr title "incoming packet lengths"
attr unit b
vector 52 testfattree.Host3.eth[0].Hostqueue queueingTime:vector ETV
attr interpolationmode none
attr recordingmode vector
attr source queueingTime(packetPulled)
attr title "queueing times"
attr unit s
vector 53 testfattree.Host3.eth[0].Hostqueue outgoingPacketLengths:vector ETV
attr interpolationmode none
attr recordingmode vector
attr source packetLength(packetPulled)
attr title "outgoing packet lengths"
attr unit b
vector 54 testfattree.Host3.eth[0].mac packetReceivedFromUpper:vector(packetBytes) ETV
attr interpolationmode none
attr recordingmode vector(packetBytes)
attr source packetReceivedFromUpper
attr title "packet bytes from higher layer, packetBytes"
vector 55 testfattree.Host3.eth[0].Hostqueue queueLength:vector ETV
attr autoWarmupFilter false
attr interpolationmode sample-hold
attr recordingmode vector
attr source "warmup(atomic(constant0(packetPushEnded) + count(packetPushStarted) - count(packetPulled) - count(packetRemoved) - count(packetDropped)))"
attr title "queue length"
attr unit pk
vector 56 testfattree.Host3.eth[0].Hostqueue queueBitLength:vector ETV
attr autoWarmupFilter false
attr interpolationmode sample-hold
attr recordingmode vector
attr source "warmup(atomic(constant0(packetPushEnded) + sum(packetLength(packetPushStarted)) - sum(packetLength(packetPulled)) - sum(packetLength(packetRemoved)) - sum(packetLength(packetDropped))))"
attr title "queue bit length"
attr unit b
vector 57 testfattree.Host3.eth[0].mac txPk:vector(packetBytes) ETV
attr interpolationmode none
attr recordingmode vector(packetBytes)
attr source packetSentToLower
attr title "packets transmitted, packetBytes"
vector 58 testfattree.Edge2.eth[0].mac rxPkOk:vector(packetBytes) ETV
attr interpolationmode none
attr recordingmode vector(packetBytes)
attr source rxPkOk
attr title "packets received OK, packetBytes"
vector 59 testfattree.Edge2.eth[0].mac passedUpPk:vector(packetBytes) ETV
attr interpolationmode none
attr recordingmode vector(packetBytes)
attr source packetSentToUpper
attr title "packets passed to higher layer, packetBytes"
vector 60 testfattree.Edge2.ethernet decapPk:vector(packetBytes) ETV
attr interpolationmode none
attr recordingmode vector(packetBytes)
attr source decapPk
attr title "packets decapsulated, packetBytes"
vector 61 testfattree.Edge2.ethernet encapPk:vector(packetBytes) ETV
attr interpolationmode none
attr recordingmode vector(packetBytes)
attr source encapPk
attr title "packets encapsulated, packetBytes"
vector 62 testfattree.Edge2.eth[3].Hiqueue.beQueue "queuelength (bit)" ETV
vector 63 testfattree.Edge2.eth[3].Hiqueue.beQueue incomingPacketLengths:vector ETV
attr interpolationmode none
attr recordingmode vector
attr source packetLength(packetPushStarted)
attr title "incoming packet lengths"
attr unit b
vector 64 testfattree.Edge2.eth[3].Hiqueue.beQueue queueingTime:vector ETV
attr interpolationmode none
attr recordingmode vector
attr source queueingTime(packetPulled)
attr title "queueing times"
attr unit s
vector 65 testfattree.Edge2.eth[3].Hiqueue.beQueue outgoingPacketLengths:vector ETV
attr interpolationmode none
attr recordingmode vector
attr source packetLength(packetPulled)
attr title "outgoing packet lengths"
attr unit b
vector 66 testfattree.Edge2.eth[3].Hiqueue.WrrScheduler "bufferOccupancy (byte)" ETV
vector 67 testfattree.Edge2.eth[3].Hiqueue.WrrScheduler packetLengths:vector ETV
attr interpolationmode none
attr recordingmode vector
attr source packetLength(packetPulled)
attr title "packet lengths"
attr unit b
vector 68 testfattree.Edge2.eth[3].Switchqueue incomingPacketLengths:vector ETV
attr interpolationmode none
attr recordingmode vector
attr source packetLength(packetPushStarted)
attr title "incoming packet lengths"
attr unit b
vector 69 testfattree.Edge2.eth[3].Switchqueue queueLength:vector ETV
attr autoWarmupFilter false
attr interpolationmode sample-hold
attr recordingmode vector
attr source "warmup(atomic(constant0(packetPushEnded) + count(packetPushStarted) - count(packetPulled) - count(packetRemoved) - count(packetDropped)))"
attr title "queue length"
attr unit pk
vector 70 testfattree.Edge2.eth[3].Switchqueue queueBitLength:vector ETV
attr autoWarmupFilter false
attr interpolationmode sample-hold
attr recordingmode vector
attr source "warmup(atomic(constant0(packetPushEnded) + sum(packetLength(packetPushStarted)) - sum(packetLength(packetPulled)) - sum(packetLength(packetRemoved)) - sum(packetLength(packetDropped))))"
attr title "queue bit length"
attr unit b
vector 71 testfattree.Edge2.eth[3].Switchqueue queueingTime:vector ETV
attr interpolationmode none
attr recordingmode vector
attr source queueingTime(packetPulled)
attr title "queueing times"
attr unit s
vector 72 testfattree.Edge2.eth[3].Switchqueue outgoingPacketLengths:vector ETV
attr interpolationmode none
attr recordingmode vector
attr source packetLength(packetPulled)
attr title "outgoing packet lengths"
attr unit b
vector 73 testfattree.Edge2.eth[3].mac packetReceivedFromUpper:vector(packetBytes) ETV
attr interpolationmode none
attr recordingmode vector(packetBytes)
attr source packetReceivedFromUpper
attr title "packet bytes from higher layer, packetBytes"
vector 74 testfattree.Edge2.eth[3].mac txPk:vector(packetBytes) ETV
attr interpolationmode none
attr recordingmode vector(packetBytes)
attr source packetSentToLower
attr title "packets transmitted, packetBytes"
vector 75 testfattree.Edge2.eth[3].Hiqueue.Priority_1 "queuelength (bit)" ETV
vector 76 testfattree.Edge2.eth[3].Hiqueue.Priority_1 incomingPacketLengths:vector ETV
attr interpolationmode none
attr recordingmode vector
attr source packetLength(packetPushStarted)
attr title "incoming packet lengths"
attr unit b
vector 77 testfattree.Edge2.eth[3].Hiqueue.Priority_1 queueingTime:vector ETV
attr interpolationmode none
attr recordingmode vector
attr source queueingTime(packetPulled)
attr title "queueing times"
attr unit s
vector 78 testfattree.Edge2.eth[3].Hiqueue.Priority_1 outgoingPacketLengths:vector ETV
attr interpolationmode none
attr recordingmode vector
attr source packetLength(packetPulled)
attr title "outgoing packet lengths"
attr unit b
vector 79 testfattree.Edge2.eth[3].Hiqueue.PriorityScheduler packetLengths:vector ETV
attr interpolationmode none
attr recordingmode vector
attr source packetLength(packetPulled)
attr title "packet lengths"
attr unit b
vector 80 testfattree.Agre2.eth[1].mac rxPkOk:vector(packetBytes) ETV
attr interpolationmode none
attr recordingmode vector(packetBytes)
attr source rxPkOk
attr title "packets received OK, packetBytes"
vector 81 testfattree.Agre2.eth[1].mac passedUpPk:vector(packetBytes) ETV
attr interpolationmode none
attr recordingmode vector(packetBytes)
attr source packetSentToUpper
attr title "packets passed to higher layer, packetBytes"
vector 82 testfattree.Agre2.ethernet decapPk:vector(packetBytes) ETV
attr interpolationmode none
attr recordingmode vector(packetBytes)
attr source decapPk
attr title "packets decapsulated, packetBytes"
vector 83 testfattree.Agre2.ethernet encapPk:vector(packetBytes) ETV
attr interpolationmode none
attr recordingmode vector(packetBytes)
attr source encapPk
attr title "packets encapsulated, packetBytes"
vector 84 testfattree.Agre2.eth[3].Hiqueue.beQueue "queuelength (bit)" ETV
vector 85 testfattree.Agre2.eth[3].Hiqueue.beQueue incomingPacketLengths:vector ETV
attr interpolationmode none
attr recordingmode vector
attr source packetLength(packetPushStarted)
attr title "incoming packet lengths"
attr unit b
vector 86 testfattree.Agre2.eth[3].Hiqueue.beQueue queueingTime:vector ETV
attr interpolationmode none
attr recordingmode vector
attr source queueingTime(packetPulled)
attr title "queueing times"
attr unit s
vector 87 testfattree.Agre2.eth[3].Hiqueue.beQueue outgoingPacketLengths:vector ETV
attr interpolationmode none
attr recordingmode vector
attr source packetLength(packetPulled)
attr title "outgoing packet lengths"
attr unit b
vector 88 testfattree.Agre2.eth[3].Hiqueue.WrrScheduler "bufferOccupancy (byte)" ETV
vector 89 testfattree.Agre2.eth[3].Hiqueue.WrrScheduler packetLengths:vector ETV
attr interpolationmode none
attr recordingmode vector
attr source packetLength(packetPulled)
attr title "packet lengths"
attr unit b
vector 90 testfattree.Agre2.eth[3].Switchqueue incomingPacketLengths:vector ETV
attr interpolationmode none
attr recordingmode vector
attr source packetLength(packetPushStarted)
attr title "incoming packet lengths"
attr unit b
vector 91 testfattree.Agre2.eth[3].Switchqueue queueLength:vector ETV
attr autoWarmupFilter false
attr interpolationmode sample-hold
attr recordingmode vector
attr source "warmup(atomic(constant0(packetPushEnded) + count(packetPushStarted) - count(packetPulled) - count(packetRemoved) - count(packetDropped)))"
attr title "queue length"
attr unit pk
vector 92 testfattree.Agre2.eth[3].Switchqueue queueBitLength:vector ETV
attr autoWarmupFilter false
attr interpolationmode sample-hold
attr recordingmode vector
attr source "warmup(atomic(constant0(packetPushEnded) + sum(packetLength(packetPushStarted)) - sum(packetLength(packetPulled)) - sum(packetLength(packetRemoved)) - sum(packetLength(packetDropped))))"
attr title "queue bit length"
attr unit b
vector 93 testfattree.Agre2.eth[3].Switchqueue queueingTime:vector ETV
attr interpolationmode none
attr recordingmode vector
attr source queueingTime(packetPulled)
attr title "queueing times"
attr unit s
vector 94 testfattree.Agre2.eth[3].Switchqueue outgoingPacketLengths:vector ETV
attr interpolationmode none
attr recordingmode vector
attr source packetLength(packetPulled)
attr title "outgoing packet lengths"
attr unit b
vector 95 testfattree.Agre2.eth[3].mac packetReceivedFromUpper:vector(packetBytes) ETV
attr interpolationmode none
attr recordingmode vector(packetBytes)
attr source packetReceivedFromUpper
attr title "packet bytes from higher layer, packetBytes"
vector 96 testfattree.Agre2.eth[3].mac txPk:vector(packetBytes) ETV
attr interpolationmode none
attr recordingmode vector(packetBytes)
attr source packetSentToLower
attr title "packets transmitted, packetBytes"
vector 97 testfattree.Agre2.eth[3].Hiqueue.Priority_1 "queuelength (bit)" ETV
vector 98 testfattree.Agre2.eth[3].Hiqueue.Priority_1 incomingPacketLengths:vector ETV
attr interpolationmode none
attr recordingmode vector
attr source packetLength(packetPushStarted)
attr title "incoming packet lengths"
attr unit b
vector 99 testfattree.Agre2.eth[3].Hiqueue.Priority_1 queueingTime:vector ETV
attr interpolationmode none
attr recordingmode vector
attr source queueingTime(packetPulled)
attr title "queueing times"
attr unit s
vector 100 testfattree.Agre2.eth[3].Hiqueue.Priority_1 outgoingPacketLengths:vector ETV
attr interpolationmode none
attr recordingmode vector
attr source packetLength(packetPulled)
attr title "outgoing packet lengths"
attr unit b
vector 101 testfattree.Agre2.eth[3].Hiqueue.PriorityScheduler packetLengths:vector ETV
attr interpolationmode none
attr recordingmode vector
attr source packetLength(packetPulled)
attr title "packet lengths"
attr unit b
vector 102 testfattree.Core4.eth[0].mac rxPkOk:vector(packetBytes) ETV
attr interpolationmode none
attr recordingmode vector(packetBytes)
attr source rxPkOk
attr title "packets received OK, packetBytes"
vector 103 testfattree.Core4.eth[0].mac passedUpPk:vector(packetBytes) ETV
attr interpolationmode none
attr recordingmode vector(packetBytes)
attr source packetSentToUpper
attr title "packets passed to higher layer, packetBytes"
vector 104 testfattree.Core4.ethernet decapPk:vector(packetBytes) ETV
attr interpolationmode none
attr recordingmode vector(packetBytes)
attr source decapPk
attr title "packets decapsulated, packetBytes"
vector 105 testfattree.Core4.ethernet encapPk:vector(packetBytes) ETV
attr interpolationmode none
attr recordingmode vector(packetBytes)
attr source encapPk
attr title "packets encapsulated, packetBytes"
vector 106 testfattree.Core4.eth[3].Hiqueue.beQueue "queuelength (bit)" ETV
vector 107 testfattree.Core4.eth[3].Hiqueue.beQueue incomingPacketLengths:vector ETV
attr interpolationmode none
attr recordingmode vector
attr source packetLength(packetPushStarted)
attr title "incoming packet lengths"
attr unit b
vector 108 testfattree.Core4.eth[3].Hiqueue.beQueue queueingTime:vector ETV
attr interpolationmode none
attr recordingmode vector
attr source queueingTime(packetPulled)
attr title "queueing times"
attr unit s
vector 109 testfattree.Core4.eth[3].Hiqueue.beQueue outgoingPacketLengths:vector ETV
attr interpolationmode none
attr recordingmode vector
attr source packetLength(packetPulled)
attr title "outgoing packet lengths"
attr unit b
vector 110 testfattree.Core4.eth[3].Hiqueue.WrrScheduler "bufferOccupancy (byte)" ETV
vector 111 testfattree.Core4.eth[3].Hiqueue.WrrScheduler packetLengths:vector ETV
attr interpolationmode none
attr recordingmode vector
attr source packetLength(packetPulled)
attr title "packet lengths"
attr unit b
vector 112 testfattree.Core4.eth[3].Switchqueue incomingPacketLengths:vector ETV
attr interpolationmode none
attr recordingmode vector
attr source packetLength(packetPushStarted)
attr title "incoming packet lengths"
attr unit b
vector 113 testfattree.Core4.eth[3].Switchqueue queueLength:vector ETV
attr autoWarmupFilter false
attr interpolationmode sample-hold
attr recordingmode vector
attr source "warmup(atomic(constant0(packetPushEnded) + count(packetPushStarted) - count(packetPulled) - count(packetRemoved) - count(packetDropped)))"
attr title "queue length"
attr unit pk
vector 114 testfattree.Core4.eth[3].Switchqueue queueBitLength:vector ETV
attr autoWarmupFilter false
attr interpolationmode sample-hold
attr recordingmode vector
attr source "warmup(atomic(constant0(packetPushEnded) + sum(packetLength(packetPushStarted)) - sum(packetLength(packetPulled)) - sum(packetLength(packetRemoved)) - sum(packetLength(packetDropped))))"
attr title "queue bit length"
attr unit b
vector 115 testfattree.Core4.eth[3].Switchqueue queueingTime:vector ETV
attr interpolationmode none
attr recordingmode vector
attr source queueingTime(packetPulled)
attr title "queueing times"
attr unit s
vector 116 testfattree.Core4.eth[3].Switchqueue outgoingPacketLengths:vector ETV
attr interpolationmode none
attr recordingmode vector
attr source packetLength(packetPulled)
attr title "outgoing packet lengths"
attr unit b
vector 117 testfattree.Core4.eth[3].mac packetReceivedFromUpper:vector(packetBytes) ETV
attr interpolationmode none
attr recordingmode vector(packetBytes)
attr source packetReceivedFromUpper
attr title "packet bytes from higher layer, packetBytes"
vector 118 testfattree.Core4.eth[3].mac txPk:vector(packetBytes) ETV
attr interpolationmode none
attr recordingmode vector(packetBytes)
attr source packetSentToLower
attr title "packets transmitted, packetBytes"
vector 119 testfattree.Core4.eth[3].Hiqueue.Priority_1 "queuelength (bit)" ETV
vector 120 testfattree.Core4.eth[3].Hiqueue.Priority_1 incomingPacketLengths:vector ETV
attr interpolationmode none
attr recordingmode vector
attr source packetLength(packetPushStarted)
attr title "incoming packet lengths"
attr unit b
vector 121 testfattree.Core4.eth[3].Hiqueue.Priority_1 queueingTime:vector ETV
attr interpolationmode none
attr recordingmode vector
attr source queueingTime(packetPulled)
attr title "queueing times"
attr unit s
vector 122 testfattree.Core4.eth[3].Hiqueue.Priority_1 outgoingPacketLengths:vector ETV
attr interpolationmode none
attr recordingmode vector
attr source packetLength(packetPulled)
attr title "outgoing packet lengths"
attr unit b
vector 123 testfattree.Core4.eth[3].Hiqueue.PriorityScheduler packetLengths:vector ETV
attr interpolationmode none
attr recordingmode vector
attr source packetLength(packetPulled)
attr title "packet lengths"
attr unit b
vector 124 testfattree.Agre8.eth[3].mac rxPkOk:vector(packetBytes) ETV
attr interpolationmode none
attr recordingmode vector(packetBytes)
attr source rxPkOk
attr title "packets received OK, packetBytes"
vector 125 testfattree.Agre8.eth[3].mac passedUpPk:vector(packetBytes) ETV
attr interpolationmode none
attr recordingmode vector(packetBytes)
attr source packetSentToUpper
attr title "packets passed to higher layer, packetBytes"
vector 126 testfattree.Agre8.ethernet decapPk:vector(packetBytes) ETV
attr interpolationmode none
attr recordingmode vector(packetBytes)
attr source decapPk
attr title "packets decapsulated, packetBytes"
vector 127 testfattree.Agre8.ethernet encapPk:vector(packetBytes) ETV
attr interpolationmode none
attr recordingmode vector(packetBytes)
attr source encapPk
attr title "packets encapsulated, packetBytes"
vector 128 testfattree.Agre8.eth[1].Hiqueue.beQueue "queuelength (bit)" ETV
vector 129 testfattree.Agre8.eth[1].Hiqueue.beQueue incomingPacketLengths:vector ETV
attr interpolationmode none
attr recordingmode vector
attr source packetLength(packetPushStarted)
attr title "incoming packet lengths"
attr unit b
vector 130 testfattree.Agre8.eth[1].Hiqueue.beQueue queueingTime:vector ETV
attr interpolationmode none
attr recordingmode vector
attr source queueingTime(packetPulled)
attr title "queueing times"
attr unit s
vector 131 testfattree.Agre8.eth[1].Hiqueue.beQueue outgoingPacketLengths:vector ETV
attr interpolationmode none
attr recordingmode vector
attr source packetLength(packetPulled)
attr title "outgoing packet lengths"
attr unit b
vector 132 testfattree.Agre8.eth[1].Hiqueue.WrrScheduler "bufferOccupancy (byte)" ETV
vector 133 testfattree.Agre8.eth[1].Hiqueue.WrrScheduler packetLengths:vector ETV
attr interpolationmode none
attr recordingmode vector
attr source packetLength(packetPulled)
attr title "packet lengths"
attr unit b
vector 134 testfattree.Agre8.eth[1].Switchqueue incomingPacketLengths:vector ETV
attr interpolationmode none
attr recordingmode vector
attr source packetLength(packetPushStarted)
attr title "incoming packet lengths"
attr unit b
vector 135 testfattree.Agre8.eth[1].Switchqueue queueLength:vector ETV
attr autoWarmupFilter false
attr interpolationmode sample-hold
attr recordingmode vector
attr source "warmup(atomic(constant0(packetPushEnded) + count(packetPushStarted) - count(packetPulled) - count(packetRemoved) - count(packetDropped)))"
attr title "queue length"
attr unit pk
vector 136 testfattree.Agre8.eth[1].Switchqueue queueBitLength:vector ETV
attr autoWarmupFilter false
attr interpolationmode sample-hold
attr recordingmode vector
attr source "warmup(atomic(constant0(packetPushEnded) + sum(packetLength(packetPushStarted)) - sum(packetLength(packetPulled)) - sum(packetLength(packetRemoved)) - sum(packetLength(packetDropped))))"
attr title "queue bit length"
attr unit b
vector 137 testfattree.Agre8.eth[1].Switchqueue queueingTime:vector ETV
attr interpolationmode none
attr recordingmode vector
attr source queueingTime(packetPulled)
attr title "queueing times"
attr unit s
vector 138 testfattree.Agre8.eth[1].Switchqueue outgoingPacketLengths:vector ETV
attr interpolationmode none
attr recordingmode vector
attr source packetLength(packetPulled)
attr title "outgoing packet lengths"
attr unit b
vector 139 testfattree.Agre8.eth[1].mac packetReceivedFromUpper:vector(packetBytes) ETV
attr interpolationmode none
attr recordingmode vector(packetBytes)
attr source packetReceivedFromUpper
attr title "packet bytes from higher layer, packetBytes"
vector 140 testfattree.Agre8.eth[1].mac txPk:vector(packetBytes) ETV
attr interpolationmode none
attr recordingmode vector(packetBytes)
attr source packetSentToLower
attr title "packets transmitted, packetBytes"
vector 141 testfattree.Edge8.eth[3].mac rxPkOk:vector(packetBytes) ETV
attr interpolationmode none
attr recordingmode vector(packetBytes)
attr source rxPkOk
attr title "packets received OK, packetBytes"
vector 142 testfattree.Edge8.eth[3].mac passedUpPk:vector(packetBytes) ETV
attr interpolationmode none
attr recordingmode vector(packetBytes)
attr source packetSentToUpper
attr title "packets passed to higher layer, packetBytes"
vector 143 testfattree.Edge8.ethernet decapPk:vector(packetBytes) ETV
attr interpolationmode none
attr recordingmode vector(packetBytes)
attr source decapPk
attr title "packets decapsulated, packetBytes"
vector 144 testfattree.Edge8.ethernet encapPk:vector(packetBytes) ETV
attr interpolationmode none
attr recordingmode vector(packetBytes)
attr source encapPk
attr title "packets encapsulated, packetBytes"
vector 145 testfattree.Edge8.eth[0].Hiqueue.beQueue "queuelength (bit)" ETV
vector 146 testfattree.Edge8.eth[0].Hiqueue.beQueue incomingPacketLengths:vector ETV
attr interpolationmode none
attr recordingmode vector
attr source packetLength(packetPushStarted)
attr title "incoming packet lengths"
attr unit b
vector 147 testfattree.Edge8.eth[0].Hiqueue.beQueue queueingTime:vector ETV
attr interpolationmode none
attr recordingmode vector
attr source queueingTime(packetPulled)
attr title "queueing times"
attr unit s
vector 148 testfattree.Edge8.eth[0].Hiqueue.beQueue outgoingPacketLengths:vector ETV
attr interpolationmode none
attr recordingmode vector
attr source packetLength(packetPulled)
attr title "outgoing packet lengths"
attr unit b
vector 149 testfattree.Edge8.eth[0].Hiqueue.WrrScheduler "bufferOccupancy (byte)" ETV
vector 150 testfattree.Edge8.eth[0].Hiqueue.WrrScheduler packetLengths:vector ETV
attr interpolationmode none
attr recordingmode vector
attr source packetLength(packetPulled)
attr title "packet lengths"
attr unit b
vector 151 testfattree.Edge8.eth[0].Switchqueue incomingPacketLengths:vector ETV
attr interpolationmode none
attr recordingmode vector
attr source packetLength(packetPushStarted)
attr title "incoming packet lengths"
attr unit b
vector 152 testfattree.Edge8.eth[0].Switchqueue queueLength:vector ETV
attr autoWarmupFilter false
attr interpolationmode sample-hold
attr recordingmode vector
attr source "warmup(atomic(constant0(packetPushEnded) + count(packetPushStarted) - count(packetPulled) - count(packetRemoved) - count(packetDropped)))"
attr title "queue length"
attr unit pk
vector 153 testfattree.Edge8.eth[0].Switchqueue queueBitLength:vector ETV
attr autoWarmupFilter false
attr interpolationmode sample-hold
attr recordingmode vector
attr source "warmup(atomic(constant0(packetPushEnded) + sum(packetLength(packetPushStarted)) - sum(packetLength(packetPulled)) - sum(packetLength(packetRemoved)) - sum(packetLength(packetDropped))))"
attr title "queue bit length"
attr unit b
vector 154 testfattree.Edge8.eth[0].Switchqueue queueingTime:vector ETV
attr interpolationmode none
attr recordingmode vector
attr source queueingTime(packetPulled)
attr title "queueing times"
attr unit s
vector 155 testfattree.Edge8.eth[0].Switchqueue outgoingPacketLengths:vector ETV
attr interpolationmode none
attr recordingmode vector
attr source packetLength(packetPulled)
attr title "outgoing packet lengths"
attr unit b
vector 156 testfattree.Edge8.eth[0].mac packetReceivedFromUpper:vector(packetBytes) ETV
attr interpolationmode none
attr recordingmode vector(packetBytes)
attr source packetReceivedFromUpper
attr title "packet bytes from higher layer, packetBytes"
vector 157 testfattree.Edge8.eth[0].mac txPk:vector(packetBytes) ETV
attr interpolationmode none
attr recordingmode vector(packetBytes)
attr source packetSentToLower
attr title "packets transmitted, packetBytes"
vector 158 testfattree.Agre8.eth[1].Hiqueue.Priority_1 "queuelength (bit)" ETV
vector 159 testfattree.Agre8.eth[1].Hiqueue.Priority_1 incomingPacketLengths:vector ETV
attr interpolationmode none
attr recordingmode vector
attr source packetLength(packetPushStarted)
attr title "incoming packet lengths"
attr unit b
vector 160 testfattree.Agre8.eth[1].Hiqueue.Priority_1 queueingTime:vector ETV
attr interpolationmode none
attr recordingmode vector
attr source queueingTime(packetPulled)
attr title "queueing times"
attr unit s
vector 161 testfattree.Agre8.eth[1].Hiqueue.Priority_1 outgoingPacketLengths:vector ETV
attr interpolationmode none
attr recordingmode vector
attr source packetLength(packetPulled)
attr title "outgoing packet lengths"
attr unit b
vector 162 testfattree.Agre8.eth[1].Hiqueue.PriorityScheduler packetLengths:vector ETV
attr interpolationmode none
attr recordingmode vector
attr source packetLength(packetPulled)
attr title "packet lengths"
attr unit b
vector 163 testfattree.Host15.eth[0].mac rxPkOk:vector(packetBytes) ETV
attr interpolationmode none
attr recordingmode vector(packetBytes)
attr source rxPkOk
attr title "packets received OK, packetBytes"
vector 164 testfattree.Host15.eth[0].mac passedUpPk:vector(packetBytes) ETV
attr interpolationmode none
attr recordingmode vector(packetBytes)
attr source packetSentToUpper
attr title "packets passed to higher layer, packetBytes"
vector 165 testfattree.Host15.ethernet decapPk:vector(packetBytes) ETV
attr interpolationmode none
attr recordingmode vector(packetBytes)
attr source decapPk
attr title "packets decapsulated, packetBytes"
vector 166 testfattree.Host15.ethernet encapPk:vector(packetBytes) ETV
attr interpolationmode none
attr recordingmode vector(packetBytes)
attr source encapPk
attr title "packets encapsulated, packetBytes"
vector 167 testfattree.Host15.eth[0].Hostqueue incomingPacketLengths:vector ETV
attr interpolationmode none
attr recordingmode vector
attr source packetLength(packetPushStarted)
attr title "incoming packet lengths"
attr unit b
vector 168 testfattree.Host15.eth[0].Hostqueue queueingTime:vector ETV
attr interpolationmode none
attr recordingmode vector
attr source queueingTime(packetPulled)
attr title "queueing times"
attr unit s
vector 169 testfattree.Host15.eth[0].Hostqueue outgoingPacketLengths:vector ETV
attr interpolationmode none
attr recordingmode vector
attr source packetLength(packetPulled)
attr title "outgoing packet lengths"
attr unit b
vector 170 testfattree.Host15.eth[0].mac packetReceivedFromUpper:vector(packetBytes) ETV
attr interpolationmode none
attr recordingmode vector(packetBytes)
attr source packetReceivedFromUpper
attr title "packet bytes from higher layer, packetBytes"
vector 171 testfattree.Host15.eth[0].Hostqueue queueLength:vector ETV
attr autoWarmupFilter false
attr interpolationmode sample-hold
attr recordingmode vector
attr source "warmup(atomic(constant0(packetPushEnded) + count(packetPushStarted) - count(packetPulled) - count(packetRemoved) - count(packetDropped)))"
attr title "queue length"
attr unit pk
vector 172 testfattree.Host15.eth[0].Hostqueue queueBitLength:vector ETV
attr autoWarmupFilter false
attr interpolationmode sample-hold
attr recordingmode vector
attr source "warmup(atomic(constant0(packetPushEnded) + sum(packetLength(packetPushStarted)) - sum(packetLength(packetPulled)) - sum(packetLength(packetRemoved)) - sum(packetLength(packetDropped))))"
attr title "queue bit length"
attr unit b
vector 173 testfattree.Host15.eth[0].mac txPk:vector(packetBytes) ETV
attr interpolationmode none
attr recordingmode vector(packetBytes)
attr source packetSentToLower
attr title "packets transmitted, packetBytes"
vector 174 testfattree.Edge8.eth[0].mac rxPkOk:vector(packetBytes) ETV
attr interpolationmode none
attr recordingmode vector(packetBytes)
attr source rxPkOk
attr title "packets received OK, packetBytes"
vector 175 testfattree.Edge8.eth[0].mac passedUpPk:vector(packetBytes) ETV
attr interpolationmode none
attr recordingmode vector(packetBytes)
attr source packetSentToUpper
attr title "packets passed to higher layer, packetBytes"
vector 176 testfattree.Edge8.eth[2].Hiqueue.creditQueue incomingPacketLengths:vector ETV
attr interpolationmode none
attr recordingmode vector
attr source packetLength(packetPushStarted)
attr title "incoming packet lengths"
attr unit b
vector 177 testfattree.Edge8.eth[2].Hiqueue.creditQueue queueingTime:vector ETV
attr interpolationmode none
attr recordingmode vector
attr source queueingTime(packetPulled)
attr title "queueing times"
attr unit s
vector 178 testfattree.Edge8.eth[2].Hiqueue.creditQueue outgoingPacketLengths:vector ETV
attr interpolationmode none
attr recordingmode vector
attr source packetLength(packetPulled)
attr title "outgoing packet lengths"
attr unit b
vector 179 testfattree.Edge8.eth[2].Hiqueue.WrrScheduler "bufferOccupancy (byte)" ETV
vector 180 testfattree.Edge8.eth[2].Hiqueue.WrrScheduler packetLengths:vector ETV
attr interpolationmode none
attr recordingmode vector
attr source packetLength(packetPulled)
attr title "packet lengths"
attr unit b
vector 181 testfattree.Edge8.eth[2].Switchqueue incomingPacketLengths:vector ETV
attr interpolationmode none
attr recordingmode vector
attr source packetLength(packetPushStarted)
attr title "incoming packet lengths"
attr unit b
vector 182 testfattree.Edge8.eth[2].Switchqueue queueLength:vector ETV
attr autoWarmupFilter false
attr interpolationmode sample-hold
attr recordingmode vector
attr source "warmup(atomic(constant0(packetPushEnded) + count(packetPushStarted) - count(packetPulled) - count(packetRemoved) - count(packetDropped)))"
attr title "queue length"
attr unit pk
vector 183 testfattree.Edge8.eth[2].Switchqueue queueBitLength:vector ETV
attr autoWarmupFilter false
attr interpolationmode sample-hold
attr recordingmode vector
attr source "warmup(atomic(constant0(packetPushEnded) + sum(packetLength(packetPushStarted)) - sum(packetLength(packetPulled)) - sum(packetLength(packetRemoved)) - sum(packetLength(packetDropped))))"
attr title "queue bit length"
attr unit b
vector 184 testfattree.Edge8.eth[2].Switchqueue queueingTime:vector ETV
attr interpolationmode none
attr recordingmode vector
attr source queueingTime(packetPulled)
attr title "queueing times"
attr unit s
vector 185 testfattree.Edge8.eth[2].Switchqueue outgoingPacketLengths:vector ETV
attr interpolationmode none
attr recordingmode vector
attr source packetLength(packetPulled)
attr title "outgoing packet lengths"
attr unit b
vector 186 testfattree.Edge8.eth[2].mac packetReceivedFromUpper:vector(packetBytes) ETV
attr interpolationmode none
attr recordingmode vector(packetBytes)
attr source packetReceivedFromUpper
attr title "packet bytes from higher layer, packetBytes"
vector 187 testfattree.Edge8.eth[2].Hiqueue.creditQueue queueLength:vector ETV
attr autoWarmupFilter false
attr interpolationmode sample-hold
attr recordingmode vector
attr source "warmup(atomic(constant0(packetPushEnded) + count(packetPushStarted) - count(packetPulled) - count(packetRemoved) - count(packetDropped)))"
attr title "queue length"
attr unit pk
vector 188 testfattree.Edge8.eth[2].Hiqueue.creditQueue queueBitLength:vector ETV
attr autoWarmupFilter false
attr interpolationmode sample-hold
attr recordingmode vector
attr source "warmup(atomic(constant0(packetPushEnded) + sum(packetLength(packetPushStarted)) - sum(packetLength(packetPulled)) - sum(packetLength(packetRemoved)) - sum(packetLength(packetDropped))))"
attr title "queue bit length"
attr unit b
vector 189 testfattree.Edge8.eth[2].mac txPk:vector(packetBytes) ETV
attr interpolationmode none
attr recordingmode vector(packetBytes)
attr source packetSentToLower
attr title "packets transmitted, packetBytes"
vector 190 testfattree.Edge8.eth[0].Hiqueue.Priority_1 "queuelength (bit)" ETV
vector 191 testfattree.Edge8.eth[0].Hiqueue.Priority_1 incomingPacketLengths:vector ETV
attr interpolationmode none
attr recordingmode vector
attr source packetLength(packetPushStarted)
attr title "incoming packet lengths"
attr unit b
vector 192 testfattree.Edge8.eth[0].Hiqueue.Priority_1 queueingTime:vector ETV
attr interpolationmode none
attr recordingmode vector
attr source queueingTime(packetPulled)
attr title "queueing times"
attr unit s
vector 193 testfattree.Edge8.eth[0].Hiqueue.Priority_1 outgoingPacketLengths:vector ETV
attr interpolationmode none
attr recordingmode vector
attr source packetLength(packetPulled)
attr title "outgoing packet lengths"
attr unit b
vector 194 testfattree.Edge8.eth[0].Hiqueue.PriorityScheduler packetLengths:vector ETV
attr interpolationmode none
attr recordingmode vector
attr source packetLength(packetPulled)
attr title "packet lengths"
attr unit b
vector 195 testfattree.Agre7.eth[1].mac rxPkOk:vector(packetBytes) ETV
attr interpolationmode none
attr recordingmode vector(packetBytes)
attr source rxPkOk
attr title "packets received OK, packetBytes"
vector 196 testfattree.Agre7.eth[1].mac passedUpPk:vector(packetBytes) ETV
attr interpolationmode none
attr recordingmode vector(packetBytes)
attr source packetSentToUpper
attr title "packets passed to higher layer, packetBytes"
vector 197 testfattree.Agre7.ethernet decapPk:vector(packetBytes) ETV
attr interpolationmode none
attr recordingmode vector(packetBytes)
attr source decapPk
attr title "packets decapsulated, packetBytes"
vector 198 testfattree.Agre7.ethernet encapPk:vector(packetBytes) ETV
attr interpolationmode none
attr recordingmode vector(packetBytes)
attr source encapPk
attr title "packets encapsulated, packetBytes"
vector 199 testfattree.Agre7.eth[2].Hiqueue.creditQueue incomingPacketLengths:vector ETV
attr interpolationmode none
attr recordingmode vector
attr source packetLength(packetPushStarted)
attr title "incoming packet lengths"
attr unit b
vector 200 testfattree.Agre7.eth[2].Hiqueue.creditQueue queueingTime:vector ETV
attr interpolationmode none
attr recordingmode vector
attr source queueingTime(packetPulled)
attr title "queueing times"
attr unit s
vector 201 testfattree.Agre7.eth[2].Hiqueue.creditQueue outgoingPacketLengths:vector ETV
attr interpolationmode none
attr recordingmode vector
attr source packetLength(packetPulled)
attr title "outgoing packet lengths"
attr unit b
vector 202 testfattree.Agre7.eth[2].Hiqueue.WrrScheduler "bufferOccupancy (byte)" ETV
vector 203 testfattree.Agre7.eth[2].Hiqueue.WrrScheduler packetLengths:vector ETV
attr interpolationmode none
attr recordingmode vector
attr source packetLength(packetPulled)
attr title "packet lengths"
attr unit b
vector 204 testfattree.Agre7.eth[2].Switchqueue incomingPacketLengths:vector ETV
attr interpolationmode none
attr recordingmode vector
attr source packetLength(packetPushStarted)
attr title "incoming packet lengths"
attr unit b
vector 205 testfattree.Agre7.eth[2].Switchqueue queueLength:vector ETV
attr autoWarmupFilter false
attr interpolationmode sample-hold
attr recordingmode vector
attr source "warmup(atomic(constant0(packetPushEnded) + count(packetPushStarted) - count(packetPulled) - count(packetRemoved) - count(packetDropped)))"
attr title "queue length"
attr unit pk
vector 206 testfattree.Agre7.eth[2].Switchqueue queueBitLength:vector ETV
attr autoWarmupFilter false
attr interpolationmode sample-hold
attr recordingmode vector
attr source "warmup(atomic(constant0(packetPushEnded) + sum(packetLength(packetPushStarted)) - sum(packetLength(packetPulled)) - sum(packetLength(packetRemoved)) - sum(packetLength(packetDropped))))"
attr title "queue bit length"
attr unit b
vector 207 testfattree.Agre7.eth[2].Switchqueue queueingTime:vector ETV
attr interpolationmode none
attr recordingmode vector
attr source queueingTime(packetPulled)
attr title "queueing times"
attr unit s
vector 208 testfattree.Agre7.eth[2].Switchqueue outgoingPacketLengths:vector ETV
attr interpolationmode none
attr recordingmode vector
attr source packetLength(packetPulled)
attr title "outgoing packet lengths"
attr unit b
vector 209 testfattree.Agre7.eth[2].mac packetReceivedFromUpper:vector(packetBytes) ETV
attr interpolationmode none
attr recordingmode vector(packetBytes)
attr source packetReceivedFromUpper
attr title "packet bytes from higher layer, packetBytes"
vector 210 testfattree.Agre7.eth[2].Hiqueue.creditQueue queueLength:vector ETV
attr autoWarmupFilter false
attr interpolationmode sample-hold
attr recordingmode vector
attr source "warmup(atomic(constant0(packetPushEnded) + count(packetPushStarted) - count(packetPulled) - count(packetRemoved) - count(packetDropped)))"
attr title "queue length"
attr unit pk
vector 211 testfattree.Agre7.eth[2].Hiqueue.creditQueue queueBitLength:vector ETV
attr autoWarmupFilter false
attr interpolationmode sample-hold
attr recordingmode vector
attr source "warmup(atomic(constant0(packetPushEnded) + sum(packetLength(packetPushStarted)) - sum(packetLength(packetPulled)) - sum(packetLength(packetRemoved)) - sum(packetLength(packetDropped))))"
attr title "queue bit length"
attr unit b
vector 212 testfattree.Agre7.eth[2].mac txPk:vector(packetBytes) ETV
attr interpolationmode none
attr recordingmode vector(packetBytes)
attr source packetSentToLower
attr title "packets transmitted, packetBytes"
vector 213 testfattree.Host15.UdpCC ecn ETV
vector 214 testfattree.Host15.UdpCC "currentRTT (s)" ETV
vector 215 testfattree.Host15.UdpCC ratio ETV
vector 216 testfattree.Host15.UdpCC "mpd (s)" ETV
vector 217 testfattree.Host15.UdpCC "target_delay (s)" ETV
vector 218 testfattree.Host15.UdpCC ecnratio ETV
vector 219 testfattree.Host15.UdpCC ECNa ETV
vector 220 testfattree.Host15.UdpCC currate ETV
vector 221 testfattree.Host15.udp packetReceived:vector(packetBytes) ETV
attr interpolationmode none
attr recordingmode vector(packetBytes)
attr source packetReceived
attr title "packets received, packetBytes"
vector 222 testfattree.Host15.app[0] "goodput (bps)" ETV
vector 223 testfattree.Core1.eth[3].mac rxPkOk:vector(packetBytes) ETV
attr interpolationmode none
attr recordingmode vector(packetBytes)
attr source rxPkOk
attr title "packets received OK, packetBytes"
vector 224 testfattree.Core1.eth[3].mac passedUpPk:vector(packetBytes) ETV
attr interpolationmode none
attr recordingmode vector(packetBytes)
attr source packetSentToUpper
attr title "packets passed to higher layer, packetBytes"
vector 225 testfattree.Core1.ethernet decapPk:vector(packetBytes) ETV
attr interpolationmode none
attr recordingmode vector(packetBytes)
attr source decapPk
attr title "packets decapsulated, packetBytes"
vector 226 testfattree.Core1.ethernet encapPk:vector(packetBytes) ETV
attr interpolationmode none
attr recordingmode vector(packetBytes)
attr source encapPk
attr title "packets encapsulated, packetBytes"
vector 227 testfattree.Core1.eth[0].Hiqueue.creditQueue incomingPacketLengths:vector ETV
attr interpolationmode none
attr recordingmode vector
attr source packetLength(packetPushStarted)
attr title "incoming packet lengths"
attr unit b
vector 228 testfattree.Core1.eth[0].Hiqueue.creditQueue queueingTime:vector ETV
attr interpolationmode none
attr recordingmode vector
attr source queueingTime(packetPulled)
attr title "queueing times"
attr unit s
vector 229 testfattree.Core1.eth[0].Hiqueue.creditQueue outgoingPacketLengths:vector ETV
attr interpolationmode none
attr recordingmode vector
attr source packetLength(packetPulled)
attr title "outgoing packet lengths"
attr unit b
vector 230 testfattree.Core1.eth[0].Hiqueue.WrrScheduler "bufferOccupancy (byte)" ETV
vector 231 testfattree.Core1.eth[0].Hiqueue.WrrScheduler packetLengths:vector ETV
attr interpolationmode none
attr recordingmode vector
attr source packetLength(packetPulled)
attr title "packet lengths"
attr unit b
vector 232 testfattree.Core1.eth[0].Switchqueue incomingPacketLengths:vector ETV
attr interpolationmode none
attr recordingmode vector
attr source packetLength(packetPushStarted)
attr title "incoming packet lengths"
attr unit b
vector 233 testfattree.Core1.eth[0].Switchqueue queueLength:vector ETV
attr autoWarmupFilter false
attr interpolationmode sample-hold
attr recordingmode vector
attr source "warmup(atomic(constant0(packetPushEnded) + count(packetPushStarted) - count(packetPulled) - count(packetRemoved) - count(packetDropped)))"
attr title "queue length"
attr unit pk
vector 234 testfattree.Core1.eth[0].Switchqueue queueBitLength:vector ETV
attr autoWarmupFilter false
attr interpolationmode sample-hold
attr recordingmode vector
attr source "warmup(atomic(constant0(packetPushEnded) + sum(packetLength(packetPushStarted)) - sum(packetLength(packetPulled)) - sum(packetLength(packetRemoved)) - sum(packetLength(packetDropped))))"
attr title "queue bit length"
attr unit b
vector 235 testfattree.Core1.eth[0].Switchqueue queueingTime:vector ETV
attr interpolationmode none
attr recordingmode vector
attr source queueingTime(packetPulled)
attr title "queueing times"
attr unit s
vector 236 testfattree.Core1.eth[0].Switchqueue outgoingPacketLengths:vector ETV
attr interpolationmode none
attr recordingmode vector
attr source packetLength(packetPulled)
attr title "outgoing packet lengths"
attr unit b
vector 237 testfattree.Core1.eth[0].mac packetReceivedFromUpper:vector(packetBytes) ETV
attr interpolationmode none
attr recordingmode vector(packetBytes)
attr source packetReceivedFromUpper
attr title "packet bytes from higher layer, packetBytes"
vector 238 testfattree.Core1.eth[0].Hiqueue.creditQueue queueLength:vector ETV
attr autoWarmupFilter false
attr interpolationmode sample-hold
attr recordingmode vector
attr source "warmup(atomic(constant0(packetPushEnded) + count(packetPushStarted) - count(packetPulled) - count(packetRemoved) - count(packetDropped)))"
attr title "queue length"
attr unit pk
vector 239 testfattree.Core1.eth[0].Hiqueue.creditQueue queueBitLength:vector ETV
attr autoWarmupFilter false
attr interpolationmode sample-hold
attr recordingmode vector
attr source "warmup(atomic(constant0(packetPushEnded) + sum(packetLength(packetPushStarted)) - sum(packetLength(packetPulled)) - sum(packetLength(packetRemoved)) - sum(packetLength(packetDropped))))"
attr title "queue bit length"
attr unit b
vector 240 testfattree.Core1.eth[0].mac txPk:vector(packetBytes) ETV
attr interpolationmode none
attr recordingmode vector(packetBytes)
attr source packetSentToLower
attr title "packets transmitted, packetBytes"
vector 241 testfattree.Agre1.eth[2].mac rxPkOk:vector(packetBytes) ETV
attr interpolationmode none
attr recordingmode vector(packetBytes)
attr source rxPkOk
attr title "packets received OK, packetBytes"
vector 242 testfattree.Agre1.eth[2].mac passedUpPk:vector(packetBytes) ETV
attr interpolationmode none
attr recordingmode vector(packetBytes)
attr source packetSentToUpper
attr title "packets passed to higher layer, packetBytes"
vector 243 testfattree.Agre1.ethernet decapPk:vector(packetBytes) ETV
attr interpolationmode none
attr recordingmode vector(packetBytes)
attr source decapPk
attr title "packets decapsulated, packetBytes"
vector 244 testfattree.Agre1.ethernet encapPk:vector(packetBytes) ETV
attr interpolationmode none
attr recordingmode vector(packetBytes)
attr source encapPk
attr title "packets encapsulated, packetBytes"
vector 245 testfattree.Agre1.eth[1].Hiqueue.creditQueue incomingPacketLengths:vector ETV
attr interpolationmode none
attr recordingmode vector
attr source packetLength(packetPushStarted)
attr title "incoming packet lengths"
attr unit b
vector 246 testfattree.Agre1.eth[1].Hiqueue.creditQueue queueingTime:vector ETV
attr interpolationmode none
attr recordingmode vector
attr source queueingTime(packetPulled)
attr title "queueing times"
attr unit s
vector 247 testfattree.Agre1.eth[1].Hiqueue.creditQueue outgoingPacketLengths:vector ETV
attr interpolationmode none
attr recordingmode vector
attr source packetLength(packetPulled)
attr title "outgoing packet lengths"
attr unit b
vector 248 testfattree.Agre1.eth[1].Hiqueue.WrrScheduler "bufferOccupancy (byte)" ETV
vector 249 testfattree.Agre1.eth[1].Hiqueue.WrrScheduler packetLengths:vector ETV
attr interpolationmode none
attr recordingmode vector
attr source packetLength(packetPulled)
attr title "packet lengths"
attr unit b
vector 250 testfattree.Agre1.eth[1].Switchqueue incomingPacketLengths:vector ETV
attr interpolationmode none
attr recordingmode vector
attr source packetLength(packetPushStarted)
attr title "incoming packet lengths"
attr unit b
vector 251 testfattree.Agre1.eth[1].Switchqueue queueLength:vector ETV
attr autoWarmupFilter false
attr interpolationmode sample-hold
attr recordingmode vector
attr source "warmup(atomic(constant0(packetPushEnded) + count(packetPushStarted) - count(packetPulled) - count(packetRemoved) - count(packetDropped)))"
attr title "queue length"
attr unit pk
vector 252 testfattree.Agre1.eth[1].Switchqueue queueBitLength:vector ETV
attr autoWarmupFilter false
attr interpolationmode sample-hold
attr recordingmode vector
attr source "warmup(atomic(constant0(packetPushEnded) + sum(packetLength(packetPushStarted)) - sum(packetLength(packetPulled)) - sum(packetLength(packetRemoved)) - sum(packetLength(packetDropped))))"
attr title "queue bit length"
attr unit b
vector 253 testfattree.Agre1.eth[1].Switchqueue queueingTime:vector ETV
attr interpolationmode none
attr recordingmode vector
attr source queueingTime(packetPulled)
attr title "queueing times"
attr unit s
vector 254 testfattree.Agre1.eth[1].Switchqueue outgoingPacketLengths:vector ETV
attr interpolationmode none
attr recordingmode vector
attr source packetLength(packetPulled)
attr title "outgoing packet lengths"
attr unit b
vector 255 testfattree.Agre1.eth[1].mac packetReceivedFromUpper:vector(packetBytes) ETV
attr interpolationmode none
attr recordingmode vector(packetBytes)
attr source packetReceivedFromUpper
attr title "packet bytes from higher layer, packetBytes"
vector 256 testfattree.Agre1.eth[1].Hiqueue.creditQueue queueLength:vector ETV
attr autoWarmupFilter false
attr interpolationmode sample-hold
attr recordingmode vector
attr source "warmup(atomic(constant0(packetPushEnded) + count(packetPushStarted) - count(packetPulled) - count(packetRemoved) - count(packetDropped)))"
attr title "queue length"
attr unit pk
vector 257 testfattree.Agre1.eth[1].Hiqueue.creditQueue queueBitLength:vector ETV
attr autoWarmupFilter false
attr interpolationmode sample-hold
attr recordingmode vector
attr source "warmup(atomic(constant0(packetPushEnded) + sum(packetLength(packetPushStarted)) - sum(packetLength(packetPulled)) - sum(packetLength(packetRemoved)) - sum(packetLength(packetDropped))))"
attr title "queue bit length"
attr unit b
vector 258 testfattree.Agre1.eth[1].mac txPk:vector(packetBytes) ETV
attr interpolationmode none
attr recordingmode vector(packetBytes)
attr source packetSentToLower
attr title "packets transmitted, packetBytes"
vector 259 testfattree.Edge2.eth[2].mac rxPkOk:vector(packetBytes) ETV
attr interpolationmode none
attr recordingmode vector(packetBytes)
attr source rxPkOk
attr title "packets received OK, packetBytes"
vector 260 testfattree.Edge2.eth[2].mac passedUpPk:vector(packetBytes) ETV
attr interpolationmode none
attr recordingmode vector(packetBytes)
attr source packetSentToUpper
attr title "packets passed to higher layer, packetBytes"
vector 261 testfattree.Edge2.eth[0].Hiqueue.creditQueue incomingPacketLengths:vector ETV
attr interpolationmode none
attr recordingmode vector
attr source packetLength(packetPushStarted)
attr title "incoming packet lengths"
attr unit b
vector 262 testfattree.Edge2.eth[0].Hiqueue.creditQueue queueingTime:vector ETV
attr interpolationmode none
attr recordingmode vector
attr source queueingTime(packetPulled)
attr title "queueing times"
attr unit s
vector 263 testfattree.Edge2.eth[0].Hiqueue.creditQueue outgoingPacketLengths:vector ETV
attr interpolationmode none
attr recordingmode vector
attr source packetLength(packetPulled)
attr title "outgoing packet lengths"
attr unit b
vector 264 testfattree.Edge2.eth[0].Hiqueue.WrrScheduler "bufferOccupancy (byte)" ETV
vector 265 testfattree.Edge2.eth[0].Hiqueue.WrrScheduler packetLengths:vector ETV
attr interpolationmode none
attr recordingmode vector
attr source packetLength(packetPulled)
attr title "packet lengths"
attr unit b
vector 266 testfattree.Edge2.eth[0].Switchqueue incomingPacketLengths:vector ETV
attr interpolationmode none
attr recordingmode vector
attr source packetLength(packetPushStarted)
attr title "incoming packet lengths"
attr unit b
vector 267 testfattree.Edge2.eth[0].Switchqueue queueLength:vector ETV
attr autoWarmupFilter false
attr interpolationmode sample-hold
attr recordingmode vector
attr source "warmup(atomic(constant0(packetPushEnded) + count(packetPushStarted) - count(packetPulled) - count(packetRemoved) - count(packetDropped)))"
attr title "queue length"
attr unit pk
vector 268 testfattree.Edge2.eth[0].Switchqueue queueBitLength:vector ETV
attr autoWarmupFilter false
attr interpolationmode sample-hold
attr recordingmode vector
attr source "warmup(atomic(constant0(packetPushEnded) + sum(packetLength(packetPushStarted)) - sum(packetLength(packetPulled)) - sum(packetLength(packetRemoved)) - sum(packetLength(packetDropped))))"
attr title "queue bit length"
attr unit b
vector 269 testfattree.Edge2.eth[0].Switchqueue queueingTime:vector ETV
attr interpolationmode none
attr recordingmode vector
attr source queueingTime(packetPulled)
attr title "queueing times"
attr unit s
vector 270 testfattree.Edge2.eth[0].Switchqueue outgoingPacketLengths:vector ETV
attr interpolationmode none
attr recordingmode vector
attr source packetLength(packetPulled)
attr title "outgoing packet lengths"
attr unit b
vector 271 testfattree.Edge2.eth[0].mac packetReceivedFromUpper:vector(packetBytes) ETV
attr interpolationmode none
attr recordingmode vector(packetBytes)
attr source packetReceivedFromUpper
attr title "packet bytes from higher layer, packetBytes"
vector 272 testfattree.Edge2.eth[0].Hiqueue.creditQueue queueLength:vector ETV
attr autoWarmupFilter false
attr interpolationmode sample-hold
attr recordingmode vector
attr source "warmup(atomic(constant0(packetPushEnded) + count(packetPushStarted) - count(packetPulled) - count(packetRemoved) - count(packetDropped)))"
attr title "queue length"
attr unit pk
vector 273 testfattree.Edge2.eth[0].Hiqueue.creditQueue queueBitLength:vector ETV
attr autoWarmupFilter false
attr interpolationmode sample-hold
attr recordingmode vector
attr source "warmup(atomic(constant0(packetPushEnded) + sum(packetLength(packetPushStarted)) - sum(packetLength(packetPulled)) - sum(packetLength(packetRemoved)) - sum(packetLength(packetDropped))))"
attr title "queue bit length"
attr unit b
vector 274 testfattree.Edge2.eth[0].mac txPk:vector(packetBytes) ETV
attr interpolationmode none
attr recordingmode vector(packetBytes)
attr source packetSentToLower
attr title "packets transmitted, packetBytes"
vector 275 testfattree.Host3.eth[0].mac rxPkOk:vector(packetBytes) ETV
attr interpolationmode none
attr recordingmode vector(packetBytes)
attr source rxPkOk
attr title "packets received OK, packetBytes"
vector 276 testfattree.Host3.eth[0].mac passedUpPk:vector(packetBytes) ETV
attr interpolationmode none
attr recordingmode vector(packetBytes)
attr source packetSentToUpper
attr title "packets passed to higher layer, packetBytes"
vector 277 testfattree.Host3.ethernet decapPk:vector(packetBytes) ETV
attr interpolationmode none
attr recordingmode vector(packetBytes)
attr source decapPk
attr title "packets decapsulated, packetBytes"
0	0	0	0
1	0	0	0
2	0	0	0
3	0	0	0
4	0	0	0
5	0	0	0
6	0	0	0
7	0	0	0
8	0	0	0
9	0	0	0
10	0	0	0
11	0	0	0
12	0	0	0
13	0	0	0
14	0	0	0
15	0	0	0
16	0	0	0
17	0	0	0
18	0	0	0
19	0	0	0
20	0	0	0
21	0	0	0
22	0	0	0
23	0	0	0
24	0	0	0
25	0	0	0
26	0	0	0
27	0	0	0
28	0	0	0
29	0	0	0
30	0	0	0
31	0	0	0
32	0	0	0
33	0	0	0
34	0	0	0
35	0	0	0
36	0	0	0
37	0	0	0
38	0	0	0
39	0	0	0
40	0	0	0
41	0	0	0
42	0	0	0
42	625	0.0000137296	1
42	673	0.00001496	2
42	729	0.0000161904	3
42	785	0.0000174208	4
42	833	0.0000186512	5
42	889	0.0000198816	6
42	944	0.000021112	7
42	992	0.0000223424	8
42	1046	0.0000235728	9
42	1102	0.0000248032	10
42	1150	0.0000260336	11
42	1206	0.000027264	12
43	0	0	0
44	0	0	0
45	0	0	0
46	0	0	0
47	0	0	0
48	18	0	65527
48	20	0	65527
48	23	0	65527
48	113	0	65527
48	203	0	59593
49	19	0	65535
49	22	0	65535
49	112	0	65535
49	202	0	65535
49	292	0	59601
50	114	0	46
50	115	0	1500
50	116	0	1500
50	117	0	1500
50	118	0	1500
50	119	0	1500
50	120	0	1500
50	121	0	1500
50	122	0	1500
50	123	0	1500
50	124	0	1500
50	125	0	1500
50	126	0	1500
50	127	0	1500
50	128	0	1500
50	129	0	1500
50	130	0	1500
50	131	0	1500
50	132	0	1500
50	133	0	1500
50	134	0	1500
50	135	0	1500
50	136	0	1500
50	137	0	1500
50	138	0	1500
50	139	0	1500
50	140	0	1500
50	141	0	1500
50	142	0	1500
50	143	0	1500
50	144	0	1500
50	145	0	1500
50	146	0	1500
50	147	0	1500
50	148	0	1500
50	149	0	1500
50	150	0	1500
50	151	0	1500
50	152	0	1500
50	153	0	1500
50	154	0	1500
50	155	0	1500
50	156	0	1500
50	157	0	1500
50	158	0	1500
50	159	0	1500
50	160	0	1500
50	161	0	1500
50	162	0	1500
50	163	0	1500
50	164	0	1500
50	165	0	1500
50	166	0	1500
50	167	0	1500
50	168	0	1500
50	169	0	1500
50	170	0	1500
50	171	0	1500
50	172	0	1500
50	173	0	1500
50	174	0	1500
50	175	0	1500
50	176	0	1500
50	177	0	1500
50	178	0	1500
50	179	0	1500
50	180	0	1500
50	181	0	1500
50	182	0	1500
50	183	0	1500
50	184	0	1500
50	185	0	1500
50	186	0	1500
50	187	0	1500
50	188	0	1500
50	189	0	1500
50	190	0	1500
50	191	0	1500
50	192	0	1500
50	193	0	1500
50	194	0	1500
50	195	0	1500
50	196	0	1500
50	197	0	1500
50	198	0	1500
50	199	0	1500
50	200	0	79
50	910	0.0000203648	1500
51	204	0	512
51	205	0	12144
51	206	0	12144
51	207	0	12144
51	208	0	12144
51	209	0	12144
51	210	0	12144
51	211	0	12144
51	212	0	12144
51	213	0	12144
51	214	0	12144
51	215	0	12144
51	216	0	12144
51	217	0	12144
51	218	0	12144
51	219	0	12144
51	220	0	12144
51	221	0	12144
51	222	0	12144
51	223	0	12144
51	224	0	12144
51	225	0	12144
51	226	0	12144
51	227	0	12144
51	228	0	12144
51	229	0	12144
51	230	0	12144
51	231	0	12144
51	232	0	12144
51	233	0	12144
51	234	0	12144
51	235	0	12144
51	236	0	12144
51	237	0	12144
51	238	0	12144
51	239	0	12144
51	240	0	12144
51	241	0	12144
51	242	0	12144
51	243	0	12144
51	244	0	12144
51	245	0	12144
51	246	0	12144
51	247	0	12144
51	248	0	12144
51	249	0	12144
51	250	0	12144
51	251	0	12144
51	252	0	12144
51	253	0	12144
51	254	0	12144
51	255	0	12144
51	256	0	12144
51	257	0	12144
51	258	0	12144
51	259	0	12144
51	260	0	12144
51	261	0	12144
51	262	0	12144
51	263	0	12144
51	264	0	12144
51	265	0	12144
51	266	0	12144
51	267	0	12144
51	268	0	12144
51	269	0	12144
51	270	0	12144
51	271	0	12144
51	272	0	12144
51	273	0	12144
51	274	0	12144
51	275	0	12144
51	276	0	12144
51	277	0	12144
51	278	0	12144
51	279	0	12144
51	280	0	12144
51	281	0	12144
51	282	0	12144
51	283	0	12144
51	284	0	12144
51	285	0	12144
51	286	0	12144
51	287	0	12144
51	288	0	12144
51	289	0	12144
51	290	0	776
51	911	0.0000203648	12144
52	204	0	0
52	295	0.0000000672	6.72e-08
52	305	0.0000012976	1.2976e-06
52	313	0.000002528	2.528e-06
52	331	0.0000037584	3.7584e-06
52	349	0.0000049888	4.9888e-06
52	375	0.0000062192	6.2192e-06
52	409	0.0000074496	7.4496e-06
52	435	0.00000868	8.68e-06
52	477	0.0000099104	9.9104e-06
52	520	0.0000111408	1.11408e-05
52	568	0.0000123712	1.23712e-05
52	618	0.0000136016	1.36016e-05
52	666	0.000014832	1.4832e-05
52	722	0.0000160624	1.60624e-05
52	776	0.0000172928	1.72928e-05
52	826	0.0000185232	1.85232e-05
52	882	0.0000197536	1.97536e-05
52	937	0.000020984	2.0984e-05
52	985	0.0000222144	2.22144e-05
52	1039	0.0000234448	2.34448e-05
52	1095	0.0000246752	2.46752e-05
52	1143	0.0000259056	2.59056e-05
52	1199	0.000027136	2.7136e-05
53	204	0	512
53	295	0.0000000672	12144
53	305	0.0000012976	12144
53	313	0.000002528	12144
53	331	0.0000037584	12144
53	349	0.0000049888	12144
53	375	0.0000062192	12144
53	409	0.0000074496	12144
53	435	0.00000868	12144
53	477	0.0000099104	12144
53	520	0.0000111408	12144
53	568	0.0000123712	12144
53	618	0.0000136016	12144
53	666	0.000014832	12144
53	722	0.0000160624	12144
53	776	0.0000172928	12144
53	826	0.0000185232	12144
53	882	0.0000197536	12144
53	937	0.000020984	12144
53	985	0.0000222144	12144
53	1039	0.0000234448	12144
53	1095	0.0000246752	12144
53	1143	0.0000259056	12144
53	1199	0.000027136	12144
54	204	0	64
54	295	0.0000000672	1518
54	305	0.0000012976	1518
54	313	0.000002528	1518
54	331	0.0000037584	1518
54	349	0.0000049888	1518
54	375	0.0000062192	1518
54	409	0.0000074496	1518
54	435	0.00000868	1518
54	477	0.0000099104	1518
54	520	0.0000111408	1518
54	568	0.0000123712	1518
54	618	0.0000136016	1518
54	666	0.000014832	1518
54	722	0.0000160624	1518
54	776	0.0000172928	1518
54	826	0.0000185232	1518
54	882	0.0000197536	1518
54	937	0.000020984	1518
54	985	0.0000222144	1518
54	1039	0.0000234448	1518
54	1095	0.0000246752	1518
54	1143	0.0000259056	1518
54	1199	0.000027136	1518
55	204	0	0
55	205	0	1
55	206	0	2
55	207	0	3
55	208	0	4
55	209	0	5
55	210	0	6
55	211	0	7
55	212	0	8
55	213	0	9
55	214	0	10
55	215	0	11
55	216	0	12
55	217	0	13
55	218	0	14
55	219	0	15
55	220	0	16
55	221	0	17
55	222	0	18
55	223	0	19
55	224	0	20
55	225	0	21
55	226	0	22
55	227	0	23
55	228	0	24
55	229	0	25
55	230	0	26
55	231	0	27
55	232	0	28
55	233	0	29
55	234	0	30
55	235	0	31
55	236	0	32
55	237	0	33
55	238	0	34
55	239	0	35
55	240	0	36
55	241	0	37
55	242	0	38
55	243	0	39
55	244	0	40
55	245	0	41
55	246	0	42
55	247	0	43
55	248	0	44
55	249	0	45
55	250	0	46
55	251	0	47
55	252	0	48
55	253	0	49
55	254	0	50
55	255	0	51
55	256	0	52
55	257	0	53
55	258	0	54
55	259	0	55
55	260	0	56
55	261	0	57
55	262	0	58
55	263	0	59
55	264	0	60
55	265	0	61
55	266	0	62
55	267	0	63
55	268	0	64
55	269	0	65
55	270	0	66
55	271	0	67
55	272	0	68
55	273	0	69
55	274	0	70
55	275	0	71
55	276	0	72
55	277	0	73
55	278	0	74
55	279	0	75
55	280	0	76
55	281	0	77
55	282	0	78
55	283	0	79
55	284	0	80
55	285	0	81
55	286	0	82
55	287	0	83
55	288	0	84
55	289	0	85
55	290	0	86
55	295	0.0000000672	85
55	305	0.0000012976	84
55	313	0.000002528	83
55	331	0.0000037584	82
55	349	0.0000049888	81
55	375	0.0000062192	80
55	409	0.0000074496	79
55	435	0.00000868	78
55	477	0.0000099104	77
55	520	0.0000111408	76
55	568	0.0000123712	75
55	618	0.0000136016	74
55	666	0.000014832	73
55	722	0.0000160624	72
55	776	0.0000172928	71
55	826	0.0000185232	70
55	882	0.0000197536	69
55	911	0.0000203648	70
55	937	0.000020984	69
55	985	0.0000222144	68
55	1039	0.0000234448	67
55	1095	0.0000246752	66
55	1143	0.0000259056	65
55	1199	0.000027136	64
56	204	0	0
56	205	0	12144
56	206	0	24288
56	207	0	36432
56	208	0	48576
56	209	0	60720
56	210	0	72864
56	211	0	85008
56	212	0	97152
56	213	0	109296
56	214	0	121440
56	215	0	133584
56	216	0	145728
56	217	0	157872
56	218	0	170016
56	219	0	182160
56	220	0	194304
56	221	0	206448
56	222	0	218592
56	223	0	230736
56	224	0	242880
56	225	0	255024
56	226	0	267168
56	227	0	279312
56	228	0	291456
56	229	0	303600
56	230	0	315744
56	231	0	327888
56	232	0	340032
56	233	0	352176
56	234	0	364320
56	235	0	376464
56	236	0	388608
56	237	0	400752
56	238	0	412896
56	239	0	425040
56	240	0	437184
56	241	0	449328
56	242	0	461472
56	243	0	473616
56	244	0	485760
56	245	0	497904
56	246	0	510048
56	247	0	522192
56	248	0	534336
56	249	0	546480
56	250	0	558624
56	251	0	570768
56	252	0	582912
56	253	0	595056
56	254	0	607200
56	255	0	619344
56	256	0	631488
56	257	0	643632
56	258	0	655776
56	259	0	667920
56	260	0	680064
56	261	0	692208
56	262	0	704352
56	263	0	716496
56	264	0	728640
56	265	0	740784
56	266	0	752928
56	267	0	765072
56	268	0	777216
56	269	0	789360
56	270	0	801504
56	271	0	813648
56	272	0	825792
56	273	0	837936
56	274	0	850080
56	275	0	862224
56	276	0	874368
56	277	0	886512
56	278	0	898656
56	279	0	910800
56	280	0	922944
56	281	0	935088
56	282	0	947232
56	283	0	959376
56	284	0	971520
56	285	0	983664
56	286	0	995808
56	287	0	1007952
56	288	0	1020096
56	289	0	1032240
56	290	0	1033016
56	295	0.0000000672	1020872
56	305	0.0000012976	1008728
56	313	0.000002528	996584
56	331	0.0000037584	984440
56	349	0.0000049888	972296
56	375	0.0000062192	960152
56	409	0.0000074496	948008
56	435	0.00000868	935864
56	477	0.0000099104	923720
56	520	0.0000111408	911576
56	568	0.0000123712	899432
56	618	0.0000136016	887288
56	666	0.000014832	875144
56	722	0.0000160624	863000
56	776	0.0000172928	850856
56	826	0.0000185232	838712
56	882	0.0000197536	826568
56	911	0.0000203648	838712
56	937	0.000020984	826568
56	985	0.0000222144	814424
56	1039	0.0000234448	802280
56	1095	0.0000246752	790136
56	1143	0.0000259056	777992
56	1199	0.000027136	765848
57	294	0.0000000576	64
57	304	0.000001288	1518
57	312	0.0000025184	1518
57	330	0.0000037488	1518
57	348	0.0000049792	1518
57	374	0.0000062096	1518
57	408	0.00000744	1518
57	434	0.0000086704	1518
57	476	0.0000099008	1518
57	519	0.0000111312	1518
57	567	0.0000123616	1518
57	617	0.000013592	1518
57	665	0.0000148224	1518
57	721	0.0000160528	1518
57	769	0.0000172832	1518
57	825	0.0000185136	1518
57	881	0.000019744	1518
57	936	0.0000209744	1518
57	984	0.0000222048	1518
57	1038	0.0000234352	1518
57	1094	0.0000246656	1518
57	1142	0.000025896	1518
57	1198	0.0000271264	1518
58	296	0.0000010576	64
58	306	0.000002288	1518
58	324	0.0000035184	1518
58	340	0.0000047488	1518
58	366	0.0000059792	1518
58	400	0.0000072096	1518
58	426	0.00000844	1518
58	468	0.0000096704	1518
58	511	0.0000109008	1518
58	559	0.0000121312	1518
58	609	0.0000133616	1518
58	657	0.000014592	1518
58	713	0.0000158224	1518
58	761	0.0000170528	1518
58	817	0.0000182832	1518
58	873	0.0000195136	1518
58	928	0.000020744	1518
58	976	0.0000219744	1518
58	1030	0.0000232048	1518
58	1086	0.0000244352	1518
58	1134	0.0000256656	1518
58	1190	0.000026896	1518
59	296	0.0000010576	64
59	306	0.000002288	1518
59	324	0.0000035184	1518
59	340	0.0000047488	1518
59	366	0.0000059792	1518
59	400	0.0000072096	1518
59	426	0.00000844	1518
59	468	0.0000096704	1518
59	511	0.0000109008	1518
59	559	0.0000121312	1518
59	609	0.0000133616	1518
59	657	0.000014592	1518
59	713	0.0000158224	1518
59	761	0.0000170528	1518
59	817	0.0000182832	1518
59	873	0.0000195136	1518
59	928	0.000020744	1518
59	976	0.0000219744	1518
59	1030	0.0000232048	1518
59	1086	0.0000244352	1518
59	1134	0.0000256656	1518
59	1190	0.000026896	1518
60	297	0.0000010576	46
60	307	0.000002288	1500
60	325	0.0000035184	1500
60	341	0.0000047488	1500
60	367	0.0000059792	1500
60	401	0.0000072096	1500
60	427	0.00000844	1500
60	469	0.0000096704	1500
60	512	0.0000109008	1500
60	560	0.0000121312	1500
60	610	0.0000133616	1500
60	658	0.000014592	1500
60	714	0.0000158224	1500
60	762	0.0000170528	1500
60	818	0.0000182832	1500
60	856	0.0000193008	54
60	874	0.0000195136	1500
60	929	0.000020744	1500
60	977	0.0000219744	1500
60	1031	0.0000232048	1500
60	1087	0.0000244352	1500
60	1135	0.0000256656	1500
60	1191	0.000026896	1500
61	299	0.0000010576	46
61	309	0.000002288	1500
61	327	0.0000035184	1500
61	343	0.0000047488	1500
61	369	0.0000059792	1500
61	403	0.0000072096	1500
61	429	0.00000844	1500
61	471	0.0000096704	1500
61	514	0.0000109008	1500
61	562	0.0000121312	1500
61	612	0.0000133616	1500
61	660	0.000014592	1500
61	716	0.0000158224	1500
61	764	0.0000170528	1500
61	820	0.0000182832	1500
61	858	0.0000193008	54
61	876	0.0000195136	1500
61	931	0.000020744	1500
61	979	0.0000219744	1500
61	1033	0.0000232048	1500
61	1089	0.0000244352	1500
61	1137	0.0000256656	1500
61	1193	0.000026896	1500
62	301	0.0000010576	0
63	301	0.0000010576	512
64	301	0.0000010576	0
65	301	0.0000010576	512
66	301	0.0000010576	0
66	311	0.000002288	0
66	329	0.0000035184	0
66	345	0.0000047488	0
66	371	0.0000059792	0
66	405	0.0000072096	0
66	431	0.00000844	0
66	473	0.0000096704	0
66	516	0.0000109008	0
66	564	0.0000121312	0
66	614	0.0000133616	0
[...]
136	848	0.0000190468	12144
136	848	0.0000190468	0
136	904	0.0000202772	12144
136	904	0.0000202772	0
136	959	0.0000215076	12144
136	959	0.0000215076	0
136	1007	0.000022738	12144
136	1007	0.000022738	0
136	1061	0.0000239684	12144
136	1061	0.0000239684	0
136	1117	0.0000251988	12144
136	1117	0.0000251988	0
136	1173	0.0000264292	12144
136	1173	0.0000264292	0
136	1221	0.0000276596	12144
136	1221	0.0000276596	0
137	395	0.0000071008	0
137	451	0.0000092036	0
137	494	0.000010434	0
137	542	0.0000116644	0
137	584	0.0000128948	0
137	640	0.0000141252	0
137	696	0.0000153556	0
137	744	0.000016586	0
137	800	0.0000178164	0
137	848	0.0000190468	0
137	904	0.0000202772	0
137	959	0.0000215076	0
137	1007	0.000022738	0
137	1061	0.0000239684	0
137	1117	0.0000251988	0
137	1173	0.0000264292	0
137	1221	0.0000276596	0
138	395	0.0000071008	512
138	451	0.0000092036	12144
138	494	0.000010434	12144
138	542	0.0000116644	12144
138	584	0.0000128948	12144
138	640	0.0000141252	12144
138	696	0.0000153556	12144
138	744	0.000016586	12144
138	800	0.0000178164	12144
138	848	0.0000190468	12144
138	904	0.0000202772	12144
138	959	0.0000215076	12144
138	1007	0.000022738	12144
138	1061	0.0000239684	12144
138	1117	0.0000251988	12144
138	1173	0.0000264292	12144
138	1221	0.0000276596	12144
139	395	0.0000071008	64
139	451	0.0000092036	1518
139	494	0.000010434	1518
139	542	0.0000116644	1518
139	584	0.0000128948	1518
139	640	0.0000141252	1518
139	696	0.0000153556	1518
139	744	0.000016586	1518
139	800	0.0000178164	1518
139	848	0.0000190468	1518
139	904	0.0000202772	1518
139	959	0.0000215076	1518
139	1007	0.000022738	1518
139	1061	0.0000239684	1518
139	1117	0.0000251988	1518
139	1173	0.0000264292	1518
139	1221	0.0000276596	1518
140	396	0.0000071152	64
140	458	0.0000095088	1518
140	501	0.0000107392	1518
140	549	0.0000119696	1518
140	591	0.0000132	1518
140	647	0.0000144304	1518
140	703	0.0000156608	1518
140	751	0.0000168912	1518
140	807	0.0000181216	1518
140	861	0.000019352	1518
140	918	0.0000205824	1518
140	966	0.0000218128	1518
140	1014	0.0000230432	1518
140	1076	0.0000242736	1518
140	1124	0.000025504	1518
140	1180	0.0000267344	1518
140	1228	0.0000279648	1518
141	438	0.0000091152	64
141	531	0.0000115088	1518
141	572	0.0000127392	1518
141	628	0.0000139696	1518
141	676	0.0000152	1518
141	732	0.0000164304	1518
141	788	0.0000176608	1518
141	836	0.0000188912	1518
141	892	0.0000201216	1518
141	947	0.000021352	1518
141	995	0.0000225824	1518
141	1049	0.0000238128	1518
141	1105	0.0000250432	1518
141	1161	0.0000262736	1518
141	1209	0.000027504	1518
142	438	0.0000091152	64
142	531	0.0000115088	1518
142	572	0.0000127392	1518
142	628	0.0000139696	1518
142	676	0.0000152	1518
142	732	0.0000164304	1518
142	788	0.0000176608	1518
142	836	0.0000188912	1518
142	892	0.0000201216	1518
142	947	0.000021352	1518
142	995	0.0000225824	1518
142	1049	0.0000238128	1518
142	1105	0.0000250432	1518
142	1161	0.0000262736	1518
142	1209	0.000027504	1518
143	439	0.0000091152	46
143	524	0.0000112368	54
143	532	0.0000115088	1500
143	574	0.0000127392	1500
143	630	0.0000139696	1500
143	678	0.0000152	1500
143	734	0.0000164304	1500
143	790	0.0000176608	1500
143	838	0.0000188912	1500
143	894	0.0000201216	1500
143	949	0.000021352	1500
143	997	0.0000225824	1500
143	1051	0.0000238128	1500
143	1069	0.0000241312	52
143	1107	0.0000250432	1500
143	1163	0.0000262736	1500
143	1211	0.000027504	1500
144	441	0.0000091152	46
144	526	0.0000112368	54
144	534	0.0000115088	1500
144	576	0.0000127392	1500
144	632	0.0000139696	1500
144	680	0.0000152	1500
144	736	0.0000164304	1500
144	792	0.0000176608	1500
144	840	0.0000188912	1500
144	896	0.0000201216	1500
144	951	0.000021352	1500
144	999	0.0000225824	1500
144	1053	0.0000238128	1500
144	1071	0.0000241312	52
144	1109	0.0000250432	1500
144	1165	0.0000262736	1500
144	1213	0.000027504	1500
145	443	0.0000091152	0
146	443	0.0000091152	512
147	443	0.0000091152	0
148	443	0.0000091152	512
149	443	0.0000091152	0
149	536	0.0000115088	0
149	578	0.0000127392	0
149	634	0.0000139696	0
149	682	0.0000152	0
149	738	0.0000164304	0
149	794	0.0000176608	0
149	842	0.0000188912	0
149	898	0.0000201216	0
149	953	0.000021352	0
149	1001	0.0000225824	0
149	1055	0.0000238128	0
149	1111	0.0000250432	0
149	1167	0.0000262736	0
149	1215	0.000027504	0
150	443	0.0000091152	512
150	536	0.0000115088	12144
150	578	0.0000127392	12144
150	634	0.0000139696	12144
150	682	0.0000152	12144
150	738	0.0000164304	12144
150	794	0.0000176608	12144
150	842	0.0000188912	12144
150	898	0.0000201216	12144
150	953	0.000021352	12144
150	1001	0.0000225824	12144
150	1055	0.0000238128	12144
150	1111	0.0000250432	12144
150	1167	0.0000262736	12144
150	1215	0.000027504	12144
151	443	0.0000091152	512
151	536	0.0000115088	12144
151	578	0.0000127392	12144
151	634	0.0000139696	12144
151	682	0.0000152	12144
151	738	0.0000164304	12144
151	794	0.0000176608	12144
151	842	0.0000188912	12144
151	898	0.0000201216	12144
151	953	0.000021352	12144
151	1001	0.0000225824	12144
151	1055	0.0000238128	12144
151	1111	0.0000250432	12144
151	1167	0.0000262736	12144
151	1215	0.000027504	12144
152	443	0.0000091152	1
152	443	0.0000091152	0
152	536	0.0000115088	1
152	536	0.0000115088	0
152	578	0.0000127392	1
152	578	0.0000127392	0
152	634	0.0000139696	1
152	634	0.0000139696	0
152	682	0.0000152	1
152	682	0.0000152	0
152	738	0.0000164304	1
152	738	0.0000164304	0
152	794	0.0000176608	1
152	794	0.0000176608	0
152	842	0.0000188912	1
152	842	0.0000188912	0
152	898	0.0000201216	1
152	898	0.0000201216	0
152	953	0.000021352	1
152	953	0.000021352	0
152	1001	0.0000225824	1
152	1001	0.0000225824	0
152	1055	0.0000238128	1
152	1055	0.0000238128	0
152	1111	0.0000250432	1
152	1111	0.0000250432	0
152	1167	0.0000262736	1
152	1167	0.0000262736	0
152	1215	0.000027504	1
152	1215	0.000027504	0
153	443	0.0000091152	512
153	443	0.0000091152	0
153	536	0.0000115088	12144
153	536	0.0000115088	0
153	578	0.0000127392	12144
153	578	0.0000127392	0
153	634	0.0000139696	12144
153	634	0.0000139696	0
153	682	0.0000152	12144
153	682	0.0000152	0
153	738	0.0000164304	12144
153	738	0.0000164304	0
153	794	0.0000176608	12144
153	794	0.0000176608	0
153	842	0.0000188912	12144
153	842	0.0000188912	0
153	898	0.0000201216	12144
153	898	0.0000201216	0
153	953	0.000021352	12144
153	953	0.000021352	0
153	1001	0.0000225824	12144
153	1001	0.0000225824	0
153	1055	0.0000238128	12144
153	1055	0.0000238128	0
153	1111	0.0000250432	12144
153	1111	0.0000250432	0
153	1167	0.0000262736	12144
153	1167	0.0000262736	0
153	1215	0.000027504	12144
153	1215	0.000027504	0
154	443	0.0000091152	0
154	536	0.0000115088	0
154	578	0.0000127392	0
154	634	0.0000139696	0
154	682	0.0000152	0
154	738	0.0000164304	0
154	794	0.0000176608	0
154	842	0.0000188912	0
154	898	0.0000201216	0
154	953	0.000021352	0
154	1001	0.0000225824	0
154	1055	0.0000238128	0
154	1111	0.0000250432	0
154	1167	0.0000262736	0
154	1215	0.000027504	0
155	443	0.0000091152	512
155	536	0.0000115088	12144
155	578	0.0000127392	12144
155	634	0.0000139696	12144
155	682	0.0000152	12144
155	738	0.0000164304	12144
155	794	0.0000176608	12144
155	842	0.0000188912	12144
155	898	0.0000201216	12144
155	953	0.000021352	12144
155	1001	0.0000225824	12144
155	1055	0.0000238128	12144
155	1111	0.0000250432	12144
155	1167	0.0000262736	12144
155	1215	0.000027504	12144
156	443	0.0000091152	64
156	536	0.0000115088	1518
156	578	0.0000127392	1518
156	634	0.0000139696	1518
156	682	0.0000152	1518
156	738	0.0000164304	1518
156	794	0.0000176608	1518
156	842	0.0000188912	1518
156	898	0.0000201216	1518
156	953	0.000021352	1518
156	1001	0.0000225824	1518
156	1055	0.0000238128	1518
156	1111	0.0000250432	1518
156	1167	0.0000262736	1518
156	1215	0.000027504	1518
157	444	0.0000091728	64
157	571	0.0000127296	1518
157	627	0.00001396	1518
157	675	0.0000151904	1518
157	731	0.0000164208	1518
157	787	0.0000176512	1518
157	835	0.0000188816	1518
157	891	0.000020112	1518
157	946	0.0000213424	1518
157	994	0.0000225728	1518
157	1048	0.0000238032	1518
157	1104	0.0000250336	1518
157	1160	0.000026264	1518
157	1208	0.0000274944	1518
158	451	0.0000092036	0
158	494	0.000010434	0
158	542	0.0000116644	0
158	584	0.0000128948	0
158	640	0.0000141252	0
158	696	0.0000153556	0
158	744	0.000016586	0
158	800	0.0000178164	0
158	848	0.0000190468	0
158	904	0.0000202772	0
158	959	0.0000215076	0
158	1007	0.000022738	0
158	1061	0.0000239684	0
158	1117	0.0000251988	0
158	1173	0.0000264292	0
158	1221	0.0000276596	0
159	451	0.0000092036	12144
159	494	0.000010434	12144
159	542	0.0000116644	12144
159	584	0.0000128948	12144
159	640	0.0000141252	12144
159	696	0.0000153556	12144
159	744	0.000016586	12144
159	800	0.0000178164	12144
159	848	0.0000190468	12144
159	904	0.0000202772	12144
159	959	0.0000215076	12144
159	1007	0.000022738	12144
159	1061	0.0000239684	12144
159	1117	0.0000251988	12144
159	1173	0.0000264292	12144
159	1221	0.0000276596	12144
160	451	0.0000092036	0
160	494	0.000010434	0
160	542	0.0000116644	0
160	584	0.0000128948	0
160	640	0.0000141252	0
160	696	0.0000153556	0
160	744	0.000016586	0
160	800	0.0000178164	0
160	848	0.0000190468	0
160	904	0.0000202772	0
160	959	0.0000215076	0
160	1007	0.000022738	0
160	1061	0.0000239684	0
160	1117	0.0000251988	0
160	1173	0.0000264292	0
160	1221	0.0000276596	0
161	451	0.0000092036	12144
161	494	0.000010434	12144
161	542	0.0000116644	12144
161	584	0.0000128948	12144
161	640	0.0000141252	12144
161	696	0.0000153556	12144
161	744	0.000016586	12144
161	800	0.0000178164	12144
161	848	0.0000190468	12144
161	904	0.0000202772	12144
161	959	0.0000215076	12144
161	1007	0.000022738	12144
161	1061	0.0000239684	12144
161	1117	0.0000251988	12144
161	1173	0.0000264292	12144
161	1221	0.0000276596	12144
162	451	0.0000092036	12144
162	494	0.000010434	12144
162	542	0.0000116644	12144
162	584	0.0000128948	12144
162	640	0.0000141252	12144
162	696	0.0000153556	12144
162	744	0.000016586	12144
162	800	0.0000178164	12144
162	848	0.0000190468	12144
162	904	0.0000202772	12144
162	959	0.0000215076	12144
162	1007	0.000022738	12144
162	1061	0.0000239684	12144
162	1117	0.0000251988	12144
162	1173	0.0000264292	12144
162	1221	0.0000276596	12144
163	480	0.0000101728	64
163	621	0.0000137296	1518
163	669	0.00001496	1518
163	725	0.0000161904	1518
163	781	0.0000174208	1518
163	829	0.0000186512	1518
163	885	0.0000198816	1518
163	940	0.000021112	1518
163	988	0.0000223424	1518
163	1042	0.0000235728	1518
163	1098	0.0000248032	1518
163	1146	0.0000260336	1518
163	1202	0.000027264	1518
164	480	0.0000101728	64
164	621	0.0000137296	1518
164	669	0.00001496	1518
164	725	0.0000161904	1518
164	781	0.0000174208	1518
164	829	0.0000186512	1518
164	885	0.0000198816	1518
164	940	0.000021112	1518
164	988	0.0000223424	1518
164	1042	0.0000235728	1518
164	1098	0.0000248032	1518
164	1146	0.0000260336	1518
164	1202	0.000027264	1518
165	481	0.0000101728	46
165	622	0.0000137296	1500
165	670	0.00001496	1500
165	726	0.0000161904	1500
165	782	0.0000174208	1500
165	830	0.0000186512	1500
165	886	0.0000198816	1500
165	941	0.000021112	1500
165	989	0.0000223424	1500
165	1043	0.0000235728	1500
165	1099	0.0000248032	1500
165	1147	0.0000260336	1500
165	1203	0.000027264	1500
166	485	0.0000101728	54
166	1024	0.0000230688	52
167	486	0.0000101728	576
167	1025	0.0000230688	560
168	486	0.0000101728	0
168	1025	0.0000230688	0
169	486	0.0000101728	576
169	1025	0.0000230688	560
170	486	0.0000101728	72
170	1025	0.0000230688	70
171	486	0.0000101728	0
171	1025	0.0000230688	0
172	486	0.0000101728	0
172	1025	0.0000230688	0
173	487	0.0000102368	72
173	1026	0.0000231312	70
174	523	0.0000112368	72
174	1068	0.0000241312	70
175	523	0.0000112368	72
175	1068	0.0000241312	70
176	528	0.0000112368	576
176	1073	0.0000241312	560
177	528	0.0000112368	0
177	1073	0.0000241312	0
178	528	0.0000112368	576
178	1073	0.0000241312	560
179	528	0.0000112368	0
179	1073	0.0000241312	0
180	528	0.0000112368	576
180	1073	0.0000241312	560
181	528	0.0000112368	576
181	1073	0.0000241312	560
182	528	0.0000112368	1
182	528	0.0000112368	0
182	1073	0.0000241312	1
182	1073	0.0000241312	0
183	528	0.0000112368	576
183	528	0.0000112368	0
183	1073	0.0000241312	560
183	1073	0.0000241312	0
184	528	0.0000112368	0
184	1073	0.0000241312	0
185	528	0.0000112368	576
185	1073	0.0000241312	560
186	528	0.0000112368	72
186	1073	0.0000241312	70
187	528	0.0000112368	0
187	1073	0.0000241312	0
188	528	0.0000112368	0
188	1073	0.0000241312	0
189	529	0.0000112528	72
189	1074	0.0000241468	70
190	536	0.0000115088	0
190	578	0.0000127392	0
190	634	0.0000139696	0
190	682	0.0000152	0
190	738	0.0000164304	0
190	794	0.0000176608	0
190	842	0.0000188912	0
190	898	0.0000201216	0
190	953	0.000021352	0
190	1001	0.0000225824	0
190	1055	0.0000238128	0
190	1111	0.0000250432	0
190	1167	0.0000262736	0
190	1215	0.000027504	0
191	536	0.0000115088	12144
191	578	0.0000127392	12144
191	634	0.0000139696	12144
191	682	0.0000152	12144
191	738	0.0000164304	12144
191	794	0.0000176608	12144
191	842	0.0000188912	12144
191	898	0.0000201216	12144
191	953	0.000021352	12144
191	1001	0.0000225824	12144
191	1055	0.0000238128	12144
191	1111	0.0000250432	12144
191	1167	0.0000262736	12144
191	1215	0.000027504	12144
192	536	0.0000115088	0
192	578	0.0000127392	0
192	634	0.0000139696	0
192	682	0.0000152	0
192	738	0.0000164304	0
192	794	0.0000176608	0
192	842	0.0000188912	0
192	898	0.0000201216	0
192	953	0.000021352	0
192	1001	0.0000225824	0
192	1055	0.0000238128	0
192	1111	0.0000250432	0
192	1167	0.0000262736	0
192	1215	0.000027504	0
193	536	0.0000115088	12144
193	578	0.0000127392	12144
193	634	0.0000139696	12144
193	682	0.0000152	12144
193	738	0.0000164304	12144
193	794	0.0000176608	12144
193	842	0.0000188912	12144
193	898	0.0000201216	12144
193	953	0.000021352	12144
193	1001	0.0000225824	12144
193	1055	0.0000238128	12144
193	1111	0.0000250432	12144
193	1167	0.0000262736	12144
193	1215	0.000027504	12144
194	536	0.0000115088	12144
194	578	0.0000127392	12144
194	634	0.0000139696	12144
194	682	0.0000152	12144
194	738	0.0000164304	12144
194	794	0.0000176608	12144
194	842	0.0000188912	12144
194	898	0.0000201216	12144
194	953	0.000021352	12144
194	1001	0.0000225824	12144
194	1055	0.0000238128	12144
194	1111	0.0000250432	12144
194	1167	0.0000262736	12144
194	1215	0.000027504	12144
195	599	0.0000132528	72
195	1152	0.0000261468	70
196	599	0.0000132528	72
196	1152	0.0000261468	70
197	600	0.0000132528	54
197	1153	0.0000261468	52
198	602	0.0000132528	54
198	1155	0.0000261468	52
199	604	0.0000132528	576
199	1157	0.0000261468	560
200	604	0.0000132528	0
200	1157	0.0000261468	0
201	604	0.0000132528	576
201	1157	0.0000261468	560
202	604	0.0000132528	0
202	1157	0.0000261468	0
203	604	0.0000132528	576
203	1157	0.0000261468	560
204	604	0.0000132528	576
204	1157	0.0000261468	560
205	604	0.0000132528	1
205	604	0.0000132528	0
205	1157	0.0000261468	1
205	1157	0.0000261468	0
206	604	0.0000132528	576
206	604	0.0000132528	0
206	1157	0.0000261468	560
206	1157	0.0000261468	0
207	604	0.0000132528	0
207	1157	0.0000261468	0
208	604	0.0000132528	576
208	1157	0.0000261468	560
209	604	0.0000132528	72
209	1157	0.0000261468	70
210	604	0.0000132528	0
210	1157	0.0000261468	0
211	604	0.0000132528	0
211	1157	0.0000261468	0
212	605	0.0000132688	72
212	1158	0.0000261624	70
213	624	0.0000137296	1
213	672	0.00001496	1
213	728	0.0000161904	1
213	784	0.0000174208	1
213	832	0.0000186512	1
213	888	0.0000198816	1
213	943	0.000021112	1
213	991	0.0000223424	1
213	1045	0.0000235728	1
213	1101	0.0000248032	1
213	1149	0.0000260336	1
213	1205	0.000027264	1
214	624	0.0000137296	1.37296e-05
214	672	0.00001496	1.496e-05
214	728	0.0000161904	1.61904e-05
214	784	0.0000174208	1.74208e-05
214	832	0.0000186512	1.86512e-05
214	888	0.0000198816	1.98816e-05
214	943	0.000021112	2.1112e-05
214	991	0.0000223424	2.23424e-05
214	1045	0.0000235728	2.35728e-05
214	1101	0.0000248032	2.48032e-05
214	1149	0.0000260336	2.60336e-05
214	1205	0.000027264	2.7264e-05
215	624	0.0000137296	1.2070012362983
215	672	0.00001496	1.1717238633874
215	728	0.0000161904	1.1369992953669
215	784	0.0000174208	1.1033038056659
215	832	0.0000186512	1.0706068970817
215	888	0.0000198816	1.0388789762101
215	943	0.000021112	1.0080913266609
215	991	0.0000223424	0.97821608306697
215	1045	0.0000235728	0.94922620586417
215	1101	0.0000248032	0.921095456818
215	1149	0.0000260336	0.89379837527597
215	1205	0.000027264	0.86731025512354
216	624	0.0000137296	2.3052e-06
216	672	0.00001496	3.5184e-06
216	728	0.0000161904	4.7488e-06
216	784	0.0000174208	5.9792e-06
216	832	0.0000186512	7.2096e-06
216	888	0.0000198816	8.44e-06
216	943	0.000021112	9.6704e-06
216	991	0.0000223424	1.09008e-05
216	1045	0.0000235728	1.21312e-05
216	1101	0.0000248032	1.33616e-05
216	1149	0.0000260336	1.4592e-05
216	1205	0.000027264	1.58224e-05
217	624	0.0000137296	1e-05
217	672	0.00001496	1e-05
217	728	0.0000161904	1e-05
217	784	0.0000174208	1e-05
217	832	0.0000186512	1e-05
217	888	0.0000198816	1e-05
217	943	0.000021112	1e-05
217	991	0.0000223424	1e-05
217	1045	0.0000235728	1e-05
217	1101	0.0000248032	1e-05
217	1149	0.0000260336	1e-05
217	1205	0.000027264	1e-05
218	624	0.0000137296	0
218	672	0.00001496	0
218	728	0.0000161904	0
218	784	0.0000174208	0
218	832	0.0000186512	0
218	888	0.0000198816	0
218	943	0.000021112	0
218	991	0.0000223424	0
218	1045	0.0000235728	0
218	1101	0.0000248032	0
218	1149	0.0000260336	0
218	1205	0.000027264	0
219	624	0.0000137296	0
219	672	0.00001496	0
219	728	0.0000161904	0
219	784	0.0000174208	0
219	832	0.0000186512	0
219	888	0.0000198816	0
219	943	0.000021112	0
219	991	0.0000223424	0
219	1045	0.0000235728	0
219	1101	0.0000248032	0
219	1149	0.0000260336	0
219	1205	0.000027264	0
220	624	0.0000137296	50000000
220	672	0.00001496	50000000
220	728	0.0000161904	50000000
220	784	0.0000174208	50000000
220	832	0.0000186512	50000000
220	888	0.0000198816	50000000
220	943	0.000021112	50000000
220	991	0.0000223424	50000000
220	1045	0.0000235728	50000000
220	1101	0.0000248032	50000000
220	1149	0.0000260336	50000000
220	1205	0.000027264	50000000
221	625	0.0000137296	1478
221	673	0.00001496	1478
221	729	0.0000161904	1478
221	785	0.0000174208	1478
221	833	0.0000186512	1478
221	889	0.0000198816	1478
221	944	0.000021112	1478
221	992	0.0000223424	1478
221	1046	0.0000235728	1478
221	1102	0.0000248032	1478
221	1150	0.0000260336	1478
221	1206	0.000027264	1478
222	626	0.0000137296	856543526.39552
222	674	0.00001496	9557867360.2081
222	730	0.0000161904	9557867360.2081
222	786	0.0000174208	9557867360.2081
222	834	0.0000186512	9557867360.2081
222	890	0.0000198816	9557867360.2081
222	945	0.000021112	9557867360.2081
222	993	0.0000223424	9557867360.2081
222	1047	0.0000235728	9557867360.2081
222	1103	0.0000248032	9557867360.2081
222	1151	0.0000260336	9557867360.2081
222	1207	0.000027264	9557867360.2081
223	683	0.0000152688	72
224	683	0.0000152688	72
225	684	0.0000152688	54
226	686	0.0000152688	54
227	688	0.0000152688	576
228	688	0.0000152688	0
229	688	0.0000152688	576
230	688	0.0000152688	0
231	688	0.0000152688	576
232	688	0.0000152688	576
233	688	0.0000152688	1
233	688	0.0000152688	0
234	688	0.0000152688	576
234	688	0.0000152688	0
235	688	0.0000152688	0
236	688	0.0000152688	576
237	688	0.0000152688	72
238	688	0.0000152688	0
239	688	0.0000152688	0
240	689	0.0000152848	72
241	770	0.0000172848	72
242	770	0.0000172848	72
243	771	0.0000172848	54
244	773	0.0000172848	54
245	775	0.0000172848	576
246	775	0.0000172848	0
247	775	0.0000172848	576
248	775	0.0000172848	0
249	775	0.0000172848	576
250	775	0.0000172848	576
251	775	0.0000172848	1
251	775	0.0000172848	0
252	775	0.0000172848	576
252	775	0.0000172848	0
253	775	0.0000172848	0
254	775	0.0000172848	576
255	775	0.0000172848	72
256	775	0.0000172848	0
257	775	0.0000172848	0
258	777	0.0000173008	72
259	855	0.0000193008	72
260	855	0.0000193008	72
261	860	0.0000193008	576
262	860	0.0000193008	0
263	860	0.0000193008	576
264	860	0.0000193008	0
265	860	0.0000193008	576
266	860	0.0000193008	576
267	860	0.0000193008	1
267	860	0.0000193008	0
268	860	0.0000193008	576
268	860	0.0000193008	0
269	860	0.0000193008	0
270	860	0.0000193008	576
271	860	0.0000193008	72
272	860	0.0000193008	0
273	860	0.0000193008	0
274	869	0.0000193648	72
275	905	0.0000203648	72
276	905	0.0000203648	72
277	906	0.0000203648	54

